// -*- C++ -*-
// File generated by PyFoam - sorry for the ugliness

FoamFile
{
 version 2.0;
 format ascii;
 class volVectorField;
 object U;
}

dimensions [ 0 1 -1 0 0 0 0 ];

internalField uniform (0 0 0);

boundaryField
{
  inlet
  {
    type groovyBC;
    variables
      (
        "freq= 5.00000;"
        "amp= 0.00200;"
        "vel= 0.01000;"
        "yp=pts().y;"
        "minY=min(yp);"
        "maxY=max(yp);"
        "zp=pts().z;"
        "minZ=min(zp);"
        "maxZ=max(zp);"
        "paray=-(maxY-pos().y)*(pos().y-minY)/(pow(maxY-minY,2));"
        "paraz=-(maxZ-pos().z)*(pos().z-minZ)/(pow(maxZ-minZ,2));"
        "para= (paray+paraz)/0.25*normal();"
      );
    valueExpression "para*(vel+(2*pi*freq*amp*sin(2*pi*freq*time())))";
    value uniform (0.01 0 0);
  }
  outlet
  {
    type zeroGradient;
  }
  wall
  {
    type noSlip;
  }
} 	// ************************************************************************* //

