/*--------------------------------*- C++ -*----------------------------------*\
| =========                 |                                                 |
| \\      /  F ield         | OpenFOAM: The Open Source CFD Toolbox           |
|  \\    /   O peration     | Version:  v1806                                 |
|   \\  /    A nd           | Web:      www.OpenFOAM.com                      |
|    \\/     M anipulation  |                                                 |
\*---------------------------------------------------------------------------*/
FoamFile
{
    version     2.0;
    format      ascii;
    class       dictionary;
    object      blockMeshDict;
}
// * * * * * * * * * * * * * * * * * * * * * * * * * * * * * * * * * * * * * //

scale   1;

// the updated blockMesh (openfoam.com) fails on some meshes with default options;
// it reports report inconsistent number of faces although the mesh is still OK.
// this happens where two 'wedge' blocks with different numbers of cells join in the same
// point/edge.
mergeType points;
checkFaceCorrespondence false;



vertices
(
    
    (-0.01357001 -0.01200000 -0.00245000) // 0
    (-0.01357015 -0.01372520 -0.00175934) // 1
    (-0.01357022 -0.01338016 -0.00140247) // 2
    (-0.01357011 -0.01200000 -0.00195500) // 3
    (-0.01403490 -0.01200000 -0.00245000) // 4
    (-0.01403500 -0.01372520 -0.00175934) // 5
    (-0.01403505 -0.01338016 -0.00140247) // 6
    (-0.01403497 -0.01200000 -0.00195500) // 7
    (-0.01357053 -0.01449969 0.00008966) // 8
    (-0.01357052 -0.01399975 0.00007673) // 9
    (-0.01403527 -0.01449969 0.00008966) // 10
    (-0.01403526 -0.01399975 0.00007673) // 11
    (-0.01357088 -0.01378174 0.00180369) // 12
    (-0.01357080 -0.01342539 0.00144795) // 13
    (-0.01403551 -0.01378174 0.00180369) // 14
    (-0.01403546 -0.01342539 0.00144795) // 15
    (-0.01357103 -0.01192068 0.00254874) // 16
    (-0.01357093 -0.01193654 0.00204399) // 17
    (-0.01403562 -0.01192068 0.00254874) // 18
    (-0.01403555 -0.01193654 0.00204399) // 19
    (-0.01357088 -0.01021826 0.00180369) // 20
    (-0.01357080 -0.01057461 0.00144795) // 21
    (-0.01403551 -0.01021826 0.00180369) // 22
    (-0.01403546 -0.01057461 0.00144795) // 23
    (-0.01357049 -0.00950283 -0.00006895) // 24
    (-0.01357050 -0.01000227 -0.00005016) // 25
    (-0.01403524 -0.00950283 -0.00006895) // 26
    (-0.01403525 -0.01000227 -0.00005016) // 27
    (-0.01357015 -0.01027480 -0.00175934) // 28
    (-0.01357022 -0.01061984 -0.00140247) // 29
    (-0.01403500 -0.01027480 -0.00175934) // 30
    (-0.01403505 -0.01061984 -0.00140247) // 31
    (-0.01357034 -0.01282809 -0.00083148) // 32
    (-0.01357027 -0.01200000 -0.00116300) // 33
    (-0.01403513 -0.01282809 -0.00083148) // 34
    (-0.01403509 -0.01200000 -0.00116300) // 35
    (-0.01357052 -0.01319985 0.00005604) // 36
    (-0.01403526 -0.01319985 0.00005604) // 37
    (-0.01357069 -0.01285523 0.00087877) // 38
    (-0.01403538 -0.01285523 0.00087877) // 39
    (-0.01357076 -0.01196193 0.00123640) // 40
    (-0.01403543 -0.01196193 0.00123640) // 41
    (-0.01357069 -0.01114477 0.00087877) // 42
    (-0.01403538 -0.01114477 0.00087877) // 43
    (-0.01357050 -0.01080136 -0.00002010) // 44
    (-0.01403525 -0.01080136 -0.00002010) // 45
    (-0.01357034 -0.01117191 -0.00083148) // 46
    (-0.01403513 -0.01117191 -0.00083148) // 47
    (-0.01357051 -0.01200000 0.00002500) // 48
    (-0.01403526 -0.01200000 0.00002500) // 49
    (-0.01310504 -0.01200000 -0.00245000) // 50
    (-0.01310525 -0.01372520 -0.00175934) // 51
    (-0.01310535 -0.01338016 -0.00140247) // 52
    (-0.01310519 -0.01200000 -0.00195500) // 53
    (-0.01310579 -0.01449969 0.00008966) // 54
    (-0.01310578 -0.01399975 0.00007673) // 55
    (-0.01310629 -0.01378174 0.00180369) // 56
    (-0.01310619 -0.01342539 0.00144795) // 57
    (-0.01310651 -0.01192068 0.00254874) // 58
    (-0.01310636 -0.01193654 0.00204399) // 59
    (-0.01310629 -0.01021826 0.00180369) // 60
    (-0.01310619 -0.01057461 0.00144795) // 61
    (-0.01310574 -0.00950283 -0.00006895) // 62
    (-0.01310575 -0.01000227 -0.00005016) // 63
    (-0.01310525 -0.01027480 -0.00175934) // 64
    (-0.01310535 -0.01061984 -0.00140247) // 65
    (-0.01310552 -0.01282809 -0.00083148) // 66
    (-0.01310542 -0.01200000 -0.00116300) // 67
    (-0.01310578 -0.01319985 0.00005604) // 68
    (-0.01310602 -0.01285523 0.00087877) // 69
    (-0.01310613 -0.01196193 0.00123640) // 70
    (-0.01310602 -0.01114477 0.00087877) // 71
    (-0.01310576 -0.01080136 -0.00002010) // 72
    (-0.01310552 -0.01117191 -0.00083148) // 73
    (-0.01310577 -0.01200000 0.00002500) // 74
    (-0.01263998 -0.01200000 -0.00245000) // 75
    (-0.01264027 -0.01372520 -0.00175933) // 76
    (-0.01264043 -0.01338016 -0.00140247) // 77
    (-0.01264019 -0.01200000 -0.00195500) // 78
    (-0.01264105 -0.01449969 0.00008966) // 79
    (-0.01264105 -0.01399975 0.00007673) // 80
    (-0.01264177 -0.01378174 0.00180369) // 81
    (-0.01264162 -0.01342539 0.00144795) // 82
    (-0.01264209 -0.01192068 0.00254874) // 83
    (-0.01264188 -0.01193654 0.00204399) // 84
    (-0.01264177 -0.01021826 0.00180369) // 85
    (-0.01264162 -0.01057461 0.00144795) // 86
    (-0.01264099 -0.00950283 -0.00006895) // 87
    (-0.01264099 -0.01000227 -0.00005016) // 88
    (-0.01264027 -0.01027480 -0.00175933) // 89
    (-0.01264043 -0.01061984 -0.00140247) // 90
    (-0.01264067 -0.01282809 -0.00083148) // 91
    (-0.01264053 -0.01200000 -0.00116300) // 92
    (-0.01264104 -0.01319985 0.00005604) // 93
    (-0.01264138 -0.01285523 0.00087877) // 94
    (-0.01264154 -0.01196193 0.00123640) // 95
    (-0.01264138 -0.01114477 0.00087877) // 96
    (-0.01264101 -0.01080136 -0.00002010) // 97
    (-0.01264067 -0.01117191 -0.00083148) // 98
    (-0.01264103 -0.01200000 0.00002500) // 99
    (-0.01217479 -0.01200000 -0.00245000) // 100
    (-0.01217521 -0.01372520 -0.00175933) // 101
    (-0.01217542 -0.01338016 -0.00140247) // 102
    (-0.01217509 -0.01200000 -0.00195500) // 103
    (-0.01217632 -0.01449969 0.00008966) // 104
    (-0.01217631 -0.01399975 0.00007673) // 105
    (-0.01217735 -0.01378174 0.00180369) // 106
    (-0.01217714 -0.01342539 0.00144795) // 107
    (-0.01217780 -0.01192068 0.00254874) // 108
    (-0.01217750 -0.01193654 0.00204399) // 109
    (-0.01217735 -0.01021826 0.00180369) // 110
    (-0.01217714 -0.01057461 0.00144795) // 111
    (-0.01217623 -0.00950283 -0.00006895) // 112
    (-0.01217624 -0.01000227 -0.00005016) // 113
    (-0.01217521 -0.01027480 -0.00175933) // 114
    (-0.01217542 -0.01061984 -0.00140247) // 115
    (-0.01217577 -0.01282809 -0.00083148) // 116
    (-0.01217557 -0.01200000 -0.00116300) // 117
    (-0.01217630 -0.01319985 0.00005604) // 118
    (-0.01217680 -0.01285523 0.00087877) // 119
    (-0.01217701 -0.01196193 0.00123640) // 120
    (-0.01217680 -0.01114477 0.00087877) // 121
    (-0.01217625 -0.01080136 -0.00002010) // 122
    (-0.01217577 -0.01117191 -0.00083148) // 123
    (-0.01217628 -0.01200000 0.00002500) // 124
    (-0.01170940 -0.01200000 -0.00245000) // 125
    (-0.01171000 -0.01372520 -0.00175933) // 126
    (-0.01171031 -0.01338016 -0.00140247) // 127
    (-0.01170983 -0.01200000 -0.00195500) // 128
    (-0.01171159 -0.01449969 0.00008966) // 129
    (-0.01171158 -0.01399975 0.00007673) // 130
    (-0.01171307 -0.01378174 0.00180369) // 131
    (-0.01171277 -0.01342539 0.00144795) // 132
    (-0.01171372 -0.01192068 0.00254874) // 133
    (-0.01171328 -0.01193654 0.00204399) // 134
    (-0.01171307 -0.01021826 0.00180369) // 135
    (-0.01171277 -0.01057461 0.00144795) // 136
    (-0.01171146 -0.00950283 -0.00006895) // 137
    (-0.01171147 -0.01000227 -0.00005016) // 138
    (-0.01171000 -0.01027480 -0.00175933) // 139
    (-0.01171031 -0.01061984 -0.00140247) // 140
    (-0.01171080 -0.01282809 -0.00083148) // 141
    (-0.01171051 -0.01200000 -0.00116300) // 142
    (-0.01171157 -0.01319985 0.00005604) // 143
    (-0.01171228 -0.01285523 0.00087877) // 144
    (-0.01171258 -0.01196193 0.00123640) // 145
    (-0.01171228 -0.01114477 0.00087877) // 146
    (-0.01171150 -0.01080136 -0.00002010) // 147
    (-0.01171080 -0.01117191 -0.00083148) // 148
    (-0.01171154 -0.01200000 0.00002500) // 149
    (-0.01124374 -0.01200000 -0.00245000) // 150
    (-0.01124459 -0.01372520 -0.00175933) // 151
    (-0.01124503 -0.01338016 -0.00140247) // 152
    (-0.01124435 -0.01200000 -0.00195500) // 153
    (-0.01124687 -0.01449969 0.00008966) // 154
    (-0.01124686 -0.01399975 0.00007673) // 155
    (-0.01124899 -0.01378174 0.00180369) // 156
    (-0.01124855 -0.01342539 0.00144795) // 157
    (-0.01124991 -0.01192068 0.00254874) // 158
    (-0.01124929 -0.01193654 0.00204399) // 159
    (-0.01124899 -0.01021826 0.00180369) // 160
    (-0.01124855 -0.01057461 0.00144795) // 161
    (-0.01124668 -0.00950283 -0.00006895) // 162
    (-0.01124670 -0.01000227 -0.00005016) // 163
    (-0.01124459 -0.01027480 -0.00175933) // 164
    (-0.01124503 -0.01061984 -0.00140247) // 165
    (-0.01124574 -0.01282809 -0.00083148) // 166
    (-0.01124533 -0.01200000 -0.00116300) // 167
    (-0.01124683 -0.01319985 0.00005604) // 168
    (-0.01124785 -0.01285523 0.00087877) // 169
    (-0.01124829 -0.01196193 0.00123639) // 170
    (-0.01124785 -0.01114477 0.00087877) // 171
    (-0.01124674 -0.01080136 -0.00002010) // 172
    (-0.01124574 -0.01117191 -0.00083148) // 173
    (-0.01124679 -0.01200000 0.00002500) // 174
    (-0.01077767 -0.01200000 -0.00245000) // 175
    (-0.01077889 -0.01372520 -0.00175933) // 176
    (-0.01077952 -0.01338016 -0.00140247) // 177
    (-0.01077855 -0.01200000 -0.00195500) // 178
    (-0.01078217 -0.01449969 0.00008966) // 179
    (-0.01078214 -0.01399975 0.00007673) // 180
    (-0.01078520 -0.01378174 0.00180368) // 181
    (-0.01078457 -0.01342539 0.00144795) // 182
    (-0.01078652 -0.01192068 0.00254874) // 183
    (-0.01078563 -0.01193654 0.00204399) // 184
    (-0.01078520 -0.01021826 0.00180368) // 185
    (-0.01078457 -0.01057461 0.00144795) // 186
    (-0.01078188 -0.00950283 -0.00006895) // 187
    (-0.01078192 -0.01000227 -0.00005016) // 188
    (-0.01077889 -0.01027480 -0.00175933) // 189
    (-0.01077952 -0.01061984 -0.00140247) // 190
    (-0.01078054 -0.01282809 -0.00083148) // 191
    (-0.01077995 -0.01200000 -0.00116300) // 192
    (-0.01078211 -0.01319985 0.00005604) // 193
    (-0.01078356 -0.01285523 0.00087877) // 194
    (-0.01078420 -0.01196193 0.00123639) // 195
    (-0.01078356 -0.01114477 0.00087877) // 196
    (-0.01078197 -0.01080136 -0.00002010) // 197
    (-0.01078054 -0.01117191 -0.00083148) // 198
    (-0.01078205 -0.01200000 0.00002500) // 199
    (-0.01031103 -0.01200000 -0.00244999) // 200
    (-0.01031278 -0.01372520 -0.00175933) // 201
    (-0.01031369 -0.01338016 -0.00140246) // 202
    (-0.01031229 -0.01200000 -0.00195499) // 203
    (-0.01031747 -0.01449969 0.00008966) // 204
    (-0.01031744 -0.01399975 0.00007673) // 205
    (-0.01032182 -0.01378174 0.00180368) // 206
    (-0.01032092 -0.01342539 0.00144795) // 207
    (-0.01032371 -0.01192068 0.00254873) // 208
    (-0.01032243 -0.01193654 0.00204399) // 209
    (-0.01032182 -0.01021826 0.00180368) // 210
    (-0.01032092 -0.01057461 0.00144795) // 211
    (-0.01031707 -0.00950283 -0.00006895) // 212
    (-0.01031712 -0.01000227 -0.00005016) // 213
    (-0.01031278 -0.01027480 -0.00175933) // 214
    (-0.01031369 -0.01061984 -0.00140246) // 215
    (-0.01031514 -0.01282809 -0.00083148) // 216
    (-0.01031430 -0.01200000 -0.00116300) // 217
    (-0.01031739 -0.01319985 0.00005604) // 218
    (-0.01031947 -0.01285523 0.00087877) // 219
    (-0.01032038 -0.01196193 0.00123639) // 220
    (-0.01031947 -0.01114477 0.00087877) // 221
    (-0.01031719 -0.01080136 -0.00002010) // 222
    (-0.01031514 -0.01117191 -0.00083148) // 223
    (-0.01031731 -0.01200000 0.00002500) // 224
    (-0.00984358 -0.01200000 -0.00244998) // 225
    (-0.00984608 -0.01372520 -0.00175932) // 226
    (-0.00984738 -0.01338016 -0.00140246) // 227
    (-0.00984537 -0.01200000 -0.00195499) // 228
    (-0.00985280 -0.01449969 0.00008966) // 229
    (-0.00985275 -0.01399975 0.00007673) // 230
    (-0.00985902 -0.01378174 0.00180368) // 231
    (-0.00985773 -0.01342539 0.00144794) // 232
    (-0.00986173 -0.01192068 0.00254872) // 233
    (-0.00985990 -0.01193654 0.00204398) // 234
    (-0.00985902 -0.01021826 0.00180368) // 235
    (-0.00985773 -0.01057461 0.00144794) // 236
    (-0.00985222 -0.00950283 -0.00006895) // 237
    (-0.00985229 -0.01000227 -0.00005016) // 238
    (-0.00984608 -0.01027480 -0.00175932) // 239
    (-0.00984738 -0.01061984 -0.00140246) // 240
    (-0.00984945 -0.01282809 -0.00083148) // 241
    (-0.00984825 -0.01200000 -0.00116299) // 242
    (-0.00985268 -0.01319985 0.00005604) // 243
    (-0.00985566 -0.01285523 0.00087876) // 244
    (-0.00985696 -0.01196193 0.00123639) // 245
    (-0.00985566 -0.01114477 0.00087876) // 246
    (-0.00985240 -0.01080136 -0.00002010) // 247
    (-0.00984945 -0.01117191 -0.00083148) // 248
    (-0.00985256 -0.01200000 0.00002500) // 249
    (-0.00937495 -0.01200000 -0.00244997) // 250
    (-0.00937854 -0.01372520 -0.00175931) // 251
    (-0.00938040 -0.01338016 -0.00140245) // 252
    (-0.00937752 -0.01200000 -0.00195497) // 253
    (-0.00938816 -0.01449969 0.00008966) // 254
    (-0.00938809 -0.01399975 0.00007673) // 255
    (-0.00939707 -0.01378174 0.00180366) // 256
    (-0.00939522 -0.01342539 0.00144793) // 257
    (-0.00940095 -0.01192068 0.00254871) // 258
    (-0.00939832 -0.01193654 0.00204397) // 259
    (-0.00939707 -0.01021826 0.00180366) // 260
    (-0.00939522 -0.01057461 0.00144793) // 261
    (-0.00938733 -0.00950283 -0.00006895) // 262
    (-0.00938743 -0.01000227 -0.00005016) // 263
    (-0.00937854 -0.01027480 -0.00175931) // 264
    (-0.00938040 -0.01061984 -0.00140245) // 265
    (-0.00938337 -0.01282809 -0.00083147) // 266
    (-0.00938164 -0.01200000 -0.00116298) // 267
    (-0.00938798 -0.01319985 0.00005604) // 268
    (-0.00939226 -0.01285523 0.00087876) // 269
    (-0.00939412 -0.01196193 0.00123638) // 270
    (-0.00939226 -0.01114477 0.00087876) // 271
    (-0.00938759 -0.01080136 -0.00002010) // 272
    (-0.00938337 -0.01117191 -0.00083147) // 273
    (-0.00938782 -0.01200000 0.00002500) // 274
    (-0.00890464 -0.01200000 -0.00244993) // 275
    (-0.00890979 -0.01372520 -0.00175929) // 276
    (-0.00891244 -0.01338016 -0.00140243) // 277
    (-0.00890833 -0.01200000 -0.00195495) // 278
    (-0.00892356 -0.01449969 0.00008966) // 279
    (-0.00892346 -0.01399975 0.00007673) // 280
    (-0.00893633 -0.01378174 0.00180364) // 281
    (-0.00893368 -0.01342539 0.00144791) // 282
    (-0.00894187 -0.01192068 0.00254867) // 283
    (-0.00893812 -0.01193654 0.00204394) // 284
    (-0.00893633 -0.01021826 0.00180364) // 285
    (-0.00893368 -0.01057461 0.00144791) // 286
    (-0.00892238 -0.00950283 -0.00006895) // 287
    (-0.00892252 -0.01000227 -0.00005016) // 288
    (-0.00890979 -0.01027480 -0.00175929) // 289
    (-0.00891244 -0.01061984 -0.00140243) // 290
    (-0.00891670 -0.01282809 -0.00083146) // 291
    (-0.00891423 -0.01200000 -0.00116297) // 292
    (-0.00892331 -0.01319985 0.00005604) // 293
    (-0.00892944 -0.01285523 0.00087875) // 294
    (-0.00893210 -0.01196193 0.00123636) // 295
    (-0.00892944 -0.01114477 0.00087875) // 296
    (-0.00892274 -0.01080136 -0.00002010) // 297
    (-0.00891670 -0.01117191 -0.00083146) // 298
    (-0.00892308 -0.01200000 0.00002500) // 299
    (-0.00778129 -0.01200000 -0.00244986) // 300
    (-0.00778866 -0.01372520 -0.00175923) // 301
    (-0.00779246 -0.01338016 -0.00140239) // 302
    (-0.00778657 -0.01200000 -0.00195489) // 303
    (-0.00780838 -0.01449969 0.00008966) // 304
    (-0.00780824 -0.01399975 0.00007673) // 305
    (-0.00782667 -0.01378174 0.00180359) // 306
    (-0.00782287 -0.01342539 0.00144787) // 307
    (-0.00783461 -0.01192068 0.00254860) // 308
    (-0.00782923 -0.01193654 0.00204388) // 309
    (-0.00782667 -0.01021826 0.00180359) // 310
    (-0.00782287 -0.01057461 0.00144787) // 311
    (-0.00780669 -0.00950283 -0.00006895) // 312
    (-0.00780689 -0.01000227 -0.00005016) // 313
    (-0.00778866 -0.01027480 -0.00175923) // 314
    (-0.00779246 -0.01061984 -0.00140239) // 315
    (-0.00779856 -0.01282809 -0.00083143) // 316
    (-0.00779502 -0.01200000 -0.00116293) // 317
    (-0.00780802 -0.01319985 0.00005604) // 318
    (-0.00781680 -0.01285523 0.00087872) // 319
    (-0.00782061 -0.01196193 0.00123633) // 320
    (-0.00781680 -0.01114477 0.00087872) // 321
    (-0.00780721 -0.01080136 -0.00002010) // 322
    (-0.00779856 -0.01117191 -0.00083143) // 323
    (-0.00780769 -0.01200000 0.00002500) // 324
    (-0.00665450 -0.01200000 -0.00244971) // 325
    (-0.00666505 -0.01372520 -0.00175913) // 326
    (-0.00667050 -0.01338016 -0.00140230) // 327
    (-0.00666206 -0.01200000 -0.00195477) // 328
    (-0.00669330 -0.01449969 0.00008966) // 329
    (-0.00669310 -0.01399975 0.00007673) // 330
    (-0.00671948 -0.01378174 0.00180348) // 331
    (-0.00671405 -0.01342539 0.00144778) // 332
    (-0.00673086 -0.01192068 0.00254845) // 333
    (-0.00672315 -0.01193654 0.00204376) // 334
    (-0.00671948 -0.01021826 0.00180348) // 335
    (-0.00671405 -0.01057461 0.00144778) // 336
    (-0.00669087 -0.00950283 -0.00006894) // 337
    (-0.00669116 -0.01000227 -0.00005016) // 338
    (-0.00666505 -0.01027480 -0.00175913) // 339
    (-0.00667050 -0.01061984 -0.00140230) // 340
    (-0.00667922 -0.01282809 -0.00083138) // 341
    (-0.00667416 -0.01200000 -0.00116286) // 342
    (-0.00669278 -0.01319985 0.00005604) // 343
    (-0.00670535 -0.01285523 0.00087867) // 344
    (-0.00671082 -0.01196193 0.00123625) // 345
    (-0.00670535 -0.01114477 0.00087867) // 346
    (-0.00669162 -0.01080136 -0.00002009) // 347
    (-0.00667922 -0.01117191 -0.00083138) // 348
    (-0.00669231 -0.01200000 0.00002500) // 349
    (-0.00552277 -0.01200000 -0.00244941) // 350
    (-0.00553788 -0.01372520 -0.00175891) // 351
    (-0.00554569 -0.01338016 -0.00140213) // 352
    (-0.00553360 -0.01200000 -0.00195453) // 353
    (-0.00557834 -0.01449969 0.00008965) // 354
    (-0.00557805 -0.01399975 0.00007672) // 355
    (-0.00561584 -0.01378174 0.00180326) // 356
    (-0.00560806 -0.01342539 0.00144761) // 357
    (-0.00563214 -0.01192068 0.00254814) // 358
    (-0.00562110 -0.01193654 0.00204351) // 359
    (-0.00561584 -0.01021826 0.00180326) // 360
    (-0.00560806 -0.01057461 0.00144761) // 361
    (-0.00557487 -0.00950283 -0.00006893) // 362
    (-0.00557528 -0.01000227 -0.00005015) // 363
    (-0.00553788 -0.01027480 -0.00175891) // 364
    (-0.00554569 -0.01061984 -0.00140213) // 365
    (-0.00555818 -0.01282809 -0.00083128) // 366
    (-0.00555093 -0.01200000 -0.00116272) // 367
    (-0.00557760 -0.01319985 0.00005603) // 368
    (-0.00559560 -0.01285523 0.00087857) // 369
    (-0.00560343 -0.01196193 0.00123611) // 370
    (-0.00559560 -0.01114477 0.00087857) // 371
    (-0.00557594 -0.01080136 -0.00002009) // 372
    (-0.00555818 -0.01117191 -0.00083128) // 373
    (-0.00557692 -0.01200000 0.00002500) // 374
    (-0.00438399 -0.01200000 -0.00244878) // 375
    (-0.00440563 -0.01372520 -0.00175846) // 376
    (-0.00441681 -0.01338016 -0.00140177) // 377
    (-0.00439950 -0.01200000 -0.00195403) // 378
    (-0.00446356 -0.01449969 0.00008963) // 379
    (-0.00446316 -0.01399975 0.00007671) // 380
    (-0.00451727 -0.01378174 0.00180281) // 381
    (-0.00450613 -0.01342539 0.00144725) // 382
    (-0.00454062 -0.01192068 0.00254750) // 383
    (-0.00452480 -0.01193654 0.00204300) // 384
    (-0.00451727 -0.01021826 0.00180281) // 385
    (-0.00450613 -0.01057461 0.00144725) // 386
    (-0.00445859 -0.00950283 -0.00006891) // 387
    (-0.00445918 -0.01000227 -0.00005013) // 388
    (-0.00440563 -0.01027480 -0.00175846) // 389
    (-0.00441681 -0.01061984 -0.00140177) // 390
    (-0.00443470 -0.01282809 -0.00083106) // 391
    (-0.00442431 -0.01200000 -0.00116242) // 392
    (-0.00446251 -0.01319985 0.00005602) // 393
    (-0.00448829 -0.01285523 0.00087835) // 394
    (-0.00449950 -0.01196193 0.00123580) // 395
    (-0.00448829 -0.01114477 0.00087835) // 396
    (-0.00446013 -0.01080136 -0.00002008) // 397
    (-0.00443470 -0.01117191 -0.00083106) // 398
    (-0.00446154 -0.01200000 0.00002500) // 399
    (-0.00323510 -0.01200000 -0.00244751) // 400
    (-0.00326609 -0.01372520 -0.00175754) // 401
    (-0.00328210 -0.01338016 -0.00140103) // 402
    (-0.00325731 -0.01200000 -0.00195301) // 403
    (-0.00334906 -0.01449969 0.00008960) // 404
    (-0.00334848 -0.01399975 0.00007668) // 405
    (-0.00342596 -0.01378174 0.00180190) // 406
    (-0.00341000 -0.01342539 0.00144652) // 407
    (-0.00345939 -0.01192068 0.00254620) // 408
    (-0.00343674 -0.01193654 0.00204196) // 409
    (-0.00342596 -0.01021826 0.00180190) // 410
    (-0.00341000 -0.01057461 0.00144652) // 411
    (-0.00334194 -0.00950283 -0.00006886) // 412
    (-0.00334278 -0.01000227 -0.00005009) // 413
    (-0.00326609 -0.01027480 -0.00175754) // 414
    (-0.00328210 -0.01061984 -0.00140103) // 415
    (-0.00330772 -0.01282809 -0.00083062) // 416
    (-0.00329285 -0.01200000 -0.00116180) // 417
    (-0.00334755 -0.01319985 0.00005601) // 418
    (-0.00338446 -0.01285523 0.00087791) // 419
    (-0.00340051 -0.01196193 0.00123518) // 420
    (-0.00338446 -0.01114477 0.00087791) // 421
    (-0.00334413 -0.01080136 -0.00002005) // 422
    (-0.00330772 -0.01117191 -0.00083062) // 423
    (-0.00334615 -0.01200000 0.00002500) // 424
    (-0.00207178 -0.01200000 -0.00243435) // 425
    (-0.00211614 -0.01372520 -0.00174511) // 426
    (-0.00213907 -0.01338016 -0.00138898) // 427
    (-0.00210358 -0.01200000 -0.00194038) // 428
    (-0.00223492 -0.01449969 0.00010007) // 429
    (-0.00223409 -0.01399975 0.00008716) // 430
    (-0.00234503 -0.01378174 0.00181055) // 431
    (-0.00232218 -0.01342539 0.00145555) // 432
    (-0.00239289 -0.01192068 0.00255406) // 433
    (-0.00236047 -0.01193654 0.00205036) // 434
    (-0.00234503 -0.01021826 0.00181055) // 435
    (-0.00232218 -0.01057461 0.00145555) // 436
    (-0.00222473 -0.00950283 -0.00005823) // 437
    (-0.00222594 -0.01000227 -0.00003947) // 438
    (-0.00211614 -0.01027480 -0.00174511) // 439
    (-0.00213907 -0.01061984 -0.00138898) // 440
    (-0.00217575 -0.01282809 -0.00081918) // 441
    (-0.00215445 -0.01200000 -0.00115001) // 442
    (-0.00223276 -0.01319985 0.00006651) // 443
    (-0.00228561 -0.01285523 0.00088754) // 444
    (-0.00230859 -0.01196193 0.00124443) // 445
    (-0.00228561 -0.01114477 0.00088754) // 446
    (-0.00222787 -0.01080136 -0.00000947) // 447
    (-0.00217575 -0.01117191 -0.00081918) // 448
    (-0.00223077 -0.01200000 0.00003553) // 449
    (-0.00088784 -0.01200000 -0.00239738) // 450
    (-0.00095134 -0.01372520 -0.00170964) // 451
    (-0.00098415 -0.01338016 -0.00135428) // 452
    (-0.00093335 -0.01200000 -0.00190448) // 453
    (-0.00112133 -0.01449969 0.00013153) // 454
    (-0.00112014 -0.01399975 0.00011865) // 455
    (-0.00127891 -0.01378174 0.00183829) // 456
    (-0.00124621 -0.01342539 0.00148406) // 457
    (-0.00134741 -0.01192068 0.00258019) // 458
    (-0.00130101 -0.01193654 0.00207758) // 459
    (-0.00127891 -0.01021826 0.00183829) // 460
    (-0.00124621 -0.01057461 0.00148406) // 461
    (-0.00110675 -0.00950283 -0.00002642) // 462
    (-0.00110847 -0.01000227 -0.00000771) // 463
    (-0.00095134 -0.01027480 -0.00170964) // 464
    (-0.00098415 -0.01061984 -0.00135428) // 465
    (-0.00103664 -0.01282809 -0.00078571) // 466
    (-0.00100616 -0.01200000 -0.00111583) // 467
    (-0.00111824 -0.01319985 0.00009805) // 468
    (-0.00119388 -0.01285523 0.00091729) // 469
    (-0.00122676 -0.01196193 0.00127340) // 470
    (-0.00119388 -0.01114477 0.00091729) // 471
    (-0.00111124 -0.01080136 0.00002223) // 472
    (-0.00103664 -0.01117191 -0.00078571) // 473
    (-0.00111538 -0.01200000 0.00006714) // 474
    (0.00032541 -0.01200000 -0.00233370) // 475
    (0.00023460 -0.01372520 -0.00164903) // 476
    (0.00018768 -0.01338016 -0.00129526) // 477
    (0.00026033 -0.01200000 -0.00184300) // 478
    (-0.00000850 -0.01449969 0.00018392) // 479
    (-0.00000680 -0.01399975 0.00017110) // 480
    (-0.00023386 -0.01378174 0.00188306) // 481
    (-0.00018709 -0.01342539 0.00153041) // 482
    (-0.00033182 -0.01192068 0.00262165) // 483
    (-0.00026545 -0.01193654 0.00212128) // 484
    (-0.00023386 -0.01021826 0.00188306) // 485
    (-0.00018709 -0.01057461 0.00153041) // 486
    (0.00001235 -0.00950283 0.00002667) // 487
    (0.00000988 -0.01000227 0.00004530) // 488
    (0.00023460 -0.01027480 -0.00164903) // 489
    (0.00018768 -0.01061984 -0.00129526) // 490
    (0.00011261 -0.01282809 -0.00072923) // 491
    (0.00015620 -0.01200000 -0.00105787) // 492
    (-0.00000408 -0.01319985 0.00015058) // 493
    (-0.00011225 -0.01285523 0.00096617) // 494
    (-0.00015927 -0.01196193 0.00132069) // 495
    (-0.00011225 -0.01114477 0.00096617) // 496
    (0.00000593 -0.01080136 0.00007511) // 497
    (0.00011261 -0.01117191 -0.00072923) // 498
    (-0.00000000 -0.01200000 0.00011981) // 499
    (0.00127654 -0.01193634 -0.00225996) // 500
    (0.00132291 -0.01366331 -0.00157529) // 501
    (0.00124876 -0.01332308 -0.00122152) // 502
    (0.00121167 -0.01194151 -0.00176926) // 503
    (0.00114203 -0.01445464 0.00025766) // 504
    (0.00110406 -0.01395615 0.00024484) // 505
    (0.00086042 -0.01375684 0.00195680) // 506
    (0.00087877 -0.01339790 0.00160415) // 507
    (0.00061510 -0.01190942 0.00269539) // 508
    (0.00068251 -0.01191997 0.00219502) // 509
    (0.00057767 -0.01020460 0.00195680) // 510
    (0.00065257 -0.01055612 0.00160415) // 511
    (0.00076633 -0.00947189 0.00010042) // 512
    (0.00080350 -0.00996994 0.00011905) // 513
    (0.00104913 -0.01022379 -0.00157529) // 514
    (0.00102974 -0.01057147 -0.00122152) // 515
    (0.00113012 -0.01277871 -0.00065549) // 516
    (0.00110787 -0.01194977 -0.00098413) // 517
    (0.00104330 -0.01315855 0.00022433) // 518
    (0.00090812 -0.01282361 0.00103991) // 519
    (0.00079037 -0.01193685 0.00139444) // 520
    (0.00077240 -0.01111854 0.00103991) // 521
    (0.00086296 -0.01076683 0.00014885) // 522
    (0.00099871 -0.01112775 -0.00065549) // 523
    (0.00095216 -0.01196216 0.00019356) // 524
    (0.00221963 -0.01179742 -0.00216515) // 525
    (0.00240288 -0.01351526 -0.00148048) // 526
    (0.00230197 -0.01318199 -0.00112671) // 527
    (0.00215537 -0.01180772 -0.00167444) // 528
    (0.00228536 -0.01431845 0.00035247) // 529
    (0.00220795 -0.01382454 0.00033965) // 530
    (0.00194927 -0.01364519 0.00205162) // 531
    (0.00193908 -0.01328593 0.00169897) // 532
    (0.00155814 -0.01182307 0.00279020) // 533
    (0.00162617 -0.01182823 0.00228984) // 534
    (0.00138555 -0.01012659 0.00205162) // 535
    (0.00148810 -0.01047105 0.00169897) // 536
    (0.00151548 -0.00938122 0.00019523) // 537
    (0.00159205 -0.00987475 0.00021386) // 538
    (0.00185705 -0.01010831 -0.00148048) // 539
    (0.00186531 -0.01045643 -0.00112671) // 540
    (0.00214051 -0.01264875 -0.00056068) // 541
    (0.00205255 -0.01182419 -0.00088932) // 542
    (0.00208410 -0.01303428 0.00031914) // 543
    (0.00192277 -0.01271112 0.00113473) // 544
    (0.00173503 -0.01183650 0.00148925) // 545
    (0.00165219 -0.01102219 0.00113473) // 546
    (0.00171456 -0.01066441 0.00024366) // 547
    (0.00187851 -0.01101342 -0.00056068) // 548
    (0.00189832 -0.01184890 0.00028837) // 549
    (0.00314872 -0.01158410 -0.00204926) // 550
    (0.00346770 -0.01328199 -0.00136459) // 551
    (0.00334066 -0.01295777 -0.00101082) // 552
    (0.00308548 -0.01159947 -0.00155856) // 553
    (0.00341428 -0.01409197 0.00046836) // 554
    (0.00329792 -0.01360576 0.00045553) // 555
    (0.00302582 -0.01344750 0.00216750) // 556
    (0.00298716 -0.01309018 0.00181485) // 557
    (0.00249135 -0.01166216 0.00290609) // 558
    (0.00255958 -0.01166191 0.00240572) // 559
    (0.00218469 -0.00998472 0.00216750) // 560
    (0.00231426 -0.01031996 0.00181485) // 561
    (0.00225508 -0.00923139 0.00031111) // 562
    (0.00237056 -0.00971730 0.00032974) // 563
    (0.00265326 -0.00992909 -0.00136459) // 564
    (0.00268911 -0.01027545 -0.00101082) // 565
    (0.00313740 -0.01243903 -0.00044479) // 566
    (0.00298429 -0.01162404 -0.00077343) // 567
    (0.00311176 -0.01282782 0.00043502) // 568
    (0.00292530 -0.01251848 0.00125061) // 569
    (0.00266875 -0.01166151 0.00160513) // 570
    (0.00252156 -0.01085634 0.00125061) // 571
    (0.00255534 -0.01049474 0.00035955) // 572
    (0.00274647 -0.01082964 -0.00044479) // 573
    (0.00283251 -0.01166091 0.00040425) // 574
    (0.00405796 -0.01129774 -0.00192285) // 575
    (0.00451065 -0.01296496 -0.00123818) // 576
    (0.00435829 -0.01265185 -0.00088441) // 577
    (0.00399613 -0.01131807 -0.00143214) // 578
    (0.00452167 -0.01377663 0.00059477) // 579
    (0.00436710 -0.01330118 0.00058195) // 580
    (0.00408330 -0.01316501 0.00229392) // 581
    (0.00401641 -0.01281189 0.00194127) // 582
    (0.00340885 -0.01142771 0.00303250) // 583
    (0.00347684 -0.01142204 0.00253214) // 584
    (0.00297006 -0.00977990 0.00229392) // 585
    (0.00312582 -0.01010380 0.00194127) // 586
    (0.00298045 -0.00902335 0.00043753) // 587
    (0.00313412 -0.00949856 0.00045616) // 588
    (0.00343274 -0.00968726 -0.00123818) // 589
    (0.00349596 -0.01002968 -0.00088441) // 590
    (0.00411451 -0.01215087 -0.00031838) // 591
    (0.00389721 -0.01135060 -0.00064702) // 592
    (0.00411979 -0.01254047 0.00056144) // 593
    (0.00390938 -0.01224689 0.00137703) // 594
    (0.00358564 -0.01141299 0.00173155) // 595
    (0.00337502 -0.01062204 0.00137703) // 596
    (0.00338001 -0.01025890 0.00048596) // 597
    (0.00359711 -0.01057757 -0.00031838) // 598
    (0.00374884 -0.01139940 0.00053067) // 599