/*--------------------------------*- C++ -*----------------------------------*\
| =========                 |                                                 |
| \\      /  F ield         | OpenFOAM: The Open Source CFD Toolbox           |
|  \\    /   O peration     | Version:  2.3.0                                 |
|   \\  /    A nd           | Web:      www.OpenFOAM.org                      |
|    \\/     M anipulation  |                                                 |
\*---------------------------------------------------------------------------*/
FoamFile
{
    version     2.0;
    format      ascii;
    class       dictionary;
    object      topoSetDict;
}

// * * * * * * * * * * * * * * * * * * * * * * * * * * * * * * * * * * * * * //

actions
(

    {
        name    zone1;
        type    cellSet;
        action  new;
        source  boxToCell;
        sourceInfo
        {
            box (-0.002 0.008 0) (0.002 0.016 0.01);
        }
    }
	
	{
        name    zone1;
        type    cellZoneSet;
        action  new;
        source  setToCellZone;
        sourceInfo
        {
            set zone1;
        }
    }

);

// ************************************************************************* //