/*--------------------------------*- C++ -*----------------------------------*\
| =========                 |                                                 |
| \\      /  F ield         | OpenFOAM: The Open Source CFD Toolbox           |
|  \\    /   O peration     | Version:  v2012                                 |
|   \\  /    A nd           | Website:  www.openfoam.com                      |
|    \\/     M anipulation  |                                                 |
\*---------------------------------------------------------------------------*/
FoamFile
{
    version     2.0;
    format      ascii;
    class       extendedFeatureEdgeMesh;
    location    "constant/extendedFeatureEdgeMesh";
    object      reactor_all.extendedFeatureEdgeMesh;
}
// * * * * * * * * * * * * * * * * * * * * * * * * * * * * * * * * * * * * * //

// points

150
(
(0.015 -0.0149912 0.00979081)
(0.015 -0.015 0.01)
(0.015 -0.0149912 0.0102092)
(0.015 -0.014965 0.0104169)
(0.015 -0.0149215 0.0106217)
(0.015 -0.0148609 0.0108222)
(0.015 -0.0147839 0.0110168)
(0.015 -0.0146908 0.0112044)
(0.015 -0.0145823 0.0113835)
(0.015 -0.0144592 0.0115529)
(0.015 -0.0143224 0.0117114)
(0.015 -0.0141728 0.0118579)
(0.015 -0.0140115 0.0119913)
(0.015 -0.0138396 0.0121108)
(0.015 -0.0136582 0.0122155)
(0.015 -0.0134688 0.0123047)
(0.015 -0.0132725 0.0123776)
(0.015 -0.0130709 0.0124339)
(0.015 -0.0128652 0.0124732)
(0.015 -0.012657 0.0124951)
(0.015 -0.0124476 0.0124994)
(0.015 -0.0122387 0.0124863)
(0.015 -0.0120315 0.0124557)
(0.015 -0.0118277 0.0124079)
(0.015 -0.0116286 0.0123432)
(0.015 -0.0114355 0.0122621)
(0.015 -0.01125 0.0121651)
(0.015 -0.0110732 0.0120529)
(0.015 -0.0109064 0.0119263)
(0.015 -0.0107508 0.0117862)
(0.015 -0.0106075 0.0116335)
(0.015 -0.0104775 0.0114695)
(0.015 -0.0103616 0.0112951)
(0.015 -0.0102607 0.0111116)
(0.015 -0.0101756 0.0109203)
(0.015 -0.0101067 0.0107226)
(0.015 -0.0100546 0.0105198)
(0.015 -0.0100197 0.0103133)
(0.015 -0.0100022 0.0101047)
(0.015 -0.0100022 0.00989531)
(0.015 -0.0100197 0.00968667)
(0.015 -0.0100546 0.00948022)
(0.015 -0.0101067 0.00927742)
(0.015 -0.0101756 0.00907969)
(0.015 -0.0102607 0.00888841)
(0.015 -0.0103616 0.00870493)
(0.015 -0.0104775 0.00853054)
(0.015 -0.0106075 0.00836645)
(0.015 -0.0107508 0.00821382)
(0.015 -0.0109064 0.00807372)
(0.015 -0.0110732 0.00794713)
(0.015 -0.01125 0.00783494)
(0.015 -0.0114355 0.00773793)
(0.015 -0.0116286 0.00765679)
(0.015 -0.0118277 0.00759209)
(0.015 -0.0120315 0.00754428)
(0.015 -0.0122387 0.00751369)
(0.015 -0.0124476 0.00750055)
(0.015 -0.012657 0.00750493)
(0.015 -0.0128652 0.00752682)
(0.015 -0.0130709 0.00756605)
(0.015 -0.0132725 0.00762236)
(0.015 -0.0134688 0.00769534)
(0.015 -0.0136582 0.00778449)
(0.015 -0.0138396 0.00788918)
(0.015 -0.0140115 0.00800867)
(0.015 -0.0141728 0.00814214)
(0.015 -0.0143224 0.00828863)
(0.015 -0.0144592 0.00844713)
(0.015 -0.0145823 0.00861652)
(0.015 -0.0146908 0.00879562)
(0.015 -0.0147839 0.00898316)
(0.015 -0.0148609 0.00917783)
(0.015 -0.0149215 0.00937827)
(0.015 -0.014965 0.00958308)
(-0.015 -0.0149912 0.000209195)
(-0.015 -0.015 0)
(-0.015 -0.0149912 -0.000209195)
(-0.015 -0.014965 -0.000416922)
(-0.015 -0.0149215 -0.000621725)
(-0.015 -0.0148609 -0.000822167)
(-0.015 -0.0147839 -0.00101684)
(-0.015 -0.0146908 -0.00120438)
(-0.015 -0.0145823 -0.00138348)
(-0.015 -0.0144592 -0.00155287)
(-0.015 -0.0143224 -0.00171137)
(-0.015 -0.0141728 -0.00185786)
(-0.015 -0.0140115 -0.00199133)
(-0.015 -0.0138396 -0.00211082)
(-0.015 -0.0136582 -0.00221551)
(-0.015 -0.0134688 -0.00230466)
(-0.015 -0.0132725 -0.00237764)
(-0.015 -0.0130709 -0.00243395)
(-0.015 -0.0128652 -0.00247318)
(-0.015 -0.012657 -0.00249507)
(-0.015 -0.0124476 -0.00249945)
(-0.015 -0.0122387 -0.00248631)
(-0.015 -0.0120315 -0.00245572)
(-0.015 -0.0118277 -0.00240791)
(-0.015 -0.0116286 -0.00234321)
(-0.015 -0.0114355 -0.00226207)
(-0.015 -0.01125 -0.00216506)
(-0.015 -0.0110732 -0.00205287)
(-0.015 -0.0109064 -0.00192628)
(-0.015 -0.0107508 -0.00178618)
(-0.015 -0.0106075 -0.00163355)
(-0.015 -0.0104775 -0.00146946)
(-0.015 -0.0103616 -0.00129507)
(-0.015 -0.0102607 -0.00111159)
(-0.015 -0.0101756 -0.000920311)
(-0.015 -0.0101067 -0.000722579)
(-0.015 -0.0100546 -0.000519779)
(-0.015 -0.0100197 -0.000313333)
(-0.015 -0.0100022 -0.000104689)
(-0.015 -0.0100022 0.000104689)
(-0.015 -0.0100197 0.000313333)
(-0.015 -0.0100546 0.000519779)
(-0.015 -0.0101067 0.000722579)
(-0.015 -0.0101756 0.000920311)
(-0.015 -0.0102607 0.00111159)
(-0.015 -0.0103616 0.00129507)
(-0.015 -0.0104775 0.00146946)
(-0.015 -0.0106075 0.00163355)
(-0.015 -0.0107508 0.00178618)
(-0.015 -0.0109064 0.00192628)
(-0.015 -0.0110732 0.00205287)
(-0.015 -0.01125 0.00216506)
(-0.015 -0.0114355 0.00226207)
(-0.015 -0.0116286 0.00234321)
(-0.015 -0.0118277 0.00240791)
(-0.015 -0.0120315 0.00245572)
(-0.015 -0.0122387 0.00248631)
(-0.015 -0.0124476 0.00249945)
(-0.015 -0.012657 0.00249507)
(-0.015 -0.0128652 0.00247318)
(-0.015 -0.0130709 0.00243395)
(-0.015 -0.0132725 0.00237764)
(-0.015 -0.0134688 0.00230466)
(-0.015 -0.0136582 0.00221551)
(-0.015 -0.0138396 0.00211082)
(-0.015 -0.0140115 0.00199133)
(-0.015 -0.0141728 0.00185786)
(-0.015 -0.0143224 0.00171137)
(-0.015 -0.0144592 0.00155287)
(-0.015 -0.0145823 0.00138348)
(-0.015 -0.0146908 0.00120438)
(-0.015 -0.0147839 0.00101684)
(-0.015 -0.0148609 0.000822167)
(-0.015 -0.0149215 0.000621725)
(-0.015 -0.014965 0.000416922)
)

// edges

150
(
(0 1)
(1 2)
(2 3)
(3 4)
(4 5)
(5 6)
(6 7)
(7 8)
(8 9)
(9 10)
(10 11)
(11 12)
(12 13)
(13 14)
(14 15)
(15 16)
(16 17)
(17 18)
(18 19)
(19 20)
(20 21)
(21 22)
(22 23)
(23 24)
(24 25)
(25 26)
(26 27)
(27 28)
(28 29)
(29 30)
(30 31)
(31 32)
(32 33)
(33 34)
(34 35)
(35 36)
(36 37)
(37 38)
(38 39)
(39 40)
(40 41)
(41 42)
(42 43)
(43 44)
(44 45)
(45 46)
(46 47)
(47 48)
(48 49)
(49 50)
(50 51)
(51 52)
(52 53)
(53 54)
(54 55)
(55 56)
(56 57)
(57 58)
(58 59)
(59 60)
(60 61)
(61 62)
(62 63)
(63 64)
(64 65)
(65 66)
(66 67)
(67 68)
(68 69)
(69 70)
(70 71)
(71 72)
(72 73)
(73 74)
(74 0)
(75 76)
(76 77)
(77 78)
(78 79)
(79 80)
(80 81)
(81 82)
(82 83)
(83 84)
(84 85)
(85 86)
(86 87)
(87 88)
(88 89)
(89 90)
(90 91)
(91 92)
(92 93)
(93 94)
(94 95)
(95 96)
(96 97)
(97 98)
(98 99)
(99 100)
(100 101)
(101 102)
(102 103)
(103 104)
(104 105)
(105 106)
(106 107)
(107 108)
(108 109)
(109 110)
(110 111)
(111 112)
(112 113)
(113 114)
(114 115)
(115 116)
(116 117)
(117 118)
(118 119)
(119 120)
(120 121)
(121 122)
(122 123)
(123 124)
(124 125)
(125 126)
(126 127)
(127 128)
(128 129)
(129 130)
(130 131)
(131 132)
(132 133)
(133 134)
(134 135)
(135 136)
(136 137)
(137 138)
(138 139)
(139 140)
(140 141)
(141 142)
(142 143)
(143 144)
(144 145)
(145 146)
(146 147)
(147 148)
(148 149)
(149 75)
)

// concaveStart mixedStart nonFeatureStart
0 0 0
// internalStart flatStart openStart multipleStart
150 150 150 150
// normals

296
(
(0 -0.999116 -0.0420302)
(1 -0 0)
(0 -0.999116 0.0420281)
(4.07332e-05 -0.992138 0.125152)
(1 -0 0)
(4.95949e-05 -0.978179 0.207763)
(1 -0 0)
(7.85976e-05 -0.957233 0.28932)
(1 -0 0)
(0.000122456 -0.929854 0.367928)
(1 -0 0)
(0.000155604 -0.895759 0.44454)
(1 -0 0)
(0.000151852 -0.855294 0.518143)
(1 -0 0)
(0.000197911 -0.808965 0.587857)
(1 -0 0)
(0.000220107 -0.757027 0.653384)
(1 -0 0)
(0.000259495 -0.699665 0.714471)
(1 -0 0)
(0.000277457 -0.637314 0.770604)
(1 -0 0)
(0.00030431 -0.570796 0.821092)
(1 -0 0)
(0.000318305 -0.49989 0.866089)
(1 -0 0)
(0.000337608 -0.426073 0.904689)
(1 -0 0)
(0.000342653 -0.348139 0.937443)
(1 -0 0)
(0.000389858 -0.268972 0.963148)
(1 -0 0)
(0.00040751 -0.187664 0.982233)
(1 -0 0)
(0.000419596 -0.104606 0.994514)
(1 -0 0)
(0.00044135 -0.0205346 0.999789)
(1 -0 0)
(0.000470404 0.0625863 0.998039)
(1 0 0)
(0.000474658 0.146101 0.98927)
(1 0 0)
(0.000480467 0.228347 0.97358)
(1 0 0)
(0.000490293 0.309053 0.951045)
(1 0 0)
(0.000490052 0.387223 0.921986)
(1 0 0)
(0.00049566 0.463382 0.886158)
(1 0 0)
(0.000514413 0.535824 0.84433)
(1 0 0)
(0.000528403 0.604576 0.796548)
(1 0 0)
(0.000537735 0.669123 0.743152)
(1 0 0)
(0.00055722 0.729192 0.684309)
(1 0 0)
(0.000555932 0.78366 0.62119)
(1 0 0)
(0.000565529 0.832857 0.553487)
(1 0 0)
(0.000552728 0.876267 0.481826)
(1 0 0)
(0.000587396 0.913673 0.40645)
(1 0 0)
(0.000580339 0.944297 0.329095)
(1 0 0)
(0.000571062 0.96855 0.248819)
(1 0 0)
(0.000566828 0.986017 0.166646)
(1 0 0)
(0.000584993 0.996499 0.0836011)
(1 0 0)
(0.000586609 1 0)
(1 0 0)
(0.000584981 0.9965 -0.0835855)
(0.000566701 0.98601 -0.166685)
(1 0 0)
(0.000568405 0.96855 -0.248819)
(1 0 0)
(0.000585102 0.944312 -0.329051)
(1 0 0)
(0.000582095 0.913657 -0.406487)
(1 0 0)
(0.0005607 0.876246 -0.481864)
(1 0 0)
(0.000576819 0.832841 -0.553512)
(1 0 0)
(0.000561797 0.783826 -0.62098)
(1 0 0)
(0.00054696 0.729036 -0.684475)
(1 0 0)
(0.000537735 0.669123 -0.743152)
(1 0 0)
(0.000531991 0.604545 -0.796571)
(1 0 0)
(0.000527264 0.535789 -0.844352)
(1 0 0)
(0.000506018 0.463421 -0.886138)
(1 0 0)
(0.00049555 0.387388 -0.921917)
(1 0 0)
(0.000492655 0.309053 -0.951045)
(1 0 0)
(0.000473329 0.228391 -0.973569)
(1 0 0)
(0.000458204 0.146053 -0.989277)
(1 0 0)
(0.000446493 0.0627769 -0.998027)
(1 0 0)
(0.00043063 -0.0209124 -0.999781)
(1 0 0)
(0.000412355 -0.104564 -0.994518)
(1 0 0)
(0.000395663 -0.187338 -0.982295)
(1 0 0)
(0.000384063 -0.269017 -0.963135)
(1 0 0)
(0.000353879 -0.348475 -0.937318)
(1 0 0)
(0.000339738 -0.425877 -0.904781)
(1 0 0)
(0.000318671 -0.499855 -0.866109)
(1 0 0)
(0.000295874 -0.570763 -0.821114)
(1 0 0)
(0.000279539 -0.637512 -0.77044)
(1 0 0)
(0.000255985 -0.699642 -0.714494)
(1 0 0)
(0.000234062 -0.757027 -0.653384)
(1 0 0)
(0.000207553 -0.808948 -0.58788)
(1 0 0)
(0.000160216 -0.855294 -0.518143)
(1 0 0)
(0.000145372 -0.895703 -0.444653)
(1 0 0)
(0.000130036 -0.9299 -0.367814)
(1 0 0)
(7.18862e-05 -0.957209 -0.289398)
(1 0 0)
(4.84974e-05 -0.978181 -0.207754)
(1 0 0)
(4.13725e-05 -0.99214 -0.125134)
(1 0 0)
(0 -0.999116 0.0420292)
(-1 0 0)
(-0 -0.999116 -0.0420292)
(-4.13722e-05 -0.99214 -0.125136)
(-1 0 0)
(-4.84804e-05 -0.97818 -0.207761)
(-1 0 0)
(-7.26126e-05 -0.957209 -0.289396)
(-1 0 0)
(-0.000130173 -0.929902 -0.367808)
(-1 0 0)
(-0.000145376 -0.895702 -0.444654)
(-1 0 0)
(-0.000160198 -0.855294 -0.518143)
(-1 0 0)
(-0.000207514 -0.808948 -0.58788)
(-1 0 0)
(-0.000234022 -0.757027 -0.653384)
(-1 0 0)
(-0.000255951 -0.699641 -0.714495)
(-1 0 0)
(-0.000279485 -0.637513 -0.77044)
(-1 0 0)
(-0.000295859 -0.570765 -0.821113)
(-1 0 0)
(-0.000318528 -0.499853 -0.86611)
(-1 0 0)
(-0.000342097 -0.425877 -0.904781)
(-1 0 0)
(-0.000353948 -0.348474 -0.937318)
(-1 0 0)
(-0.000384159 -0.269019 -0.963135)
(-1 0 0)
(-0.000395676 -0.187337 -0.982296)
(-1 0 0)
(-0.000412369 -0.104563 -0.994518)
(-1 0 0)
(-0.000430692 -0.0209124 -0.999781)
(-1 0 0)
(-0.000446555 0.0627769 -0.998027)
(-1 0 0)
(-0.000458249 0.146052 -0.989277)
(-1 0 0)
(-0.000473389 0.228391 -0.973569)
(-1 0 0)
(-0.000492732 0.309054 -0.951044)
(-1 0 0)
(-0.000495646 0.387387 -0.921917)
(-1 0 0)
(-0.000508311 0.46342 -0.886139)
(-1 0 0)
(-0.000527159 0.535789 -0.844352)
(-1 0 0)
(-0.00053195 0.604545 -0.796571)
(-1 0 0)
(-0.000537637 0.669123 -0.743151)
(-1 0 0)
(-0.000546989 0.729036 -0.684475)
(-1 0 0)
(-0.000561798 0.783825 -0.620982)
(-1 0 0)
(-0.000576792 0.832842 -0.55351)
(-1 0 0)
(-0.000560678 0.876245 -0.481865)
(-1 0 0)
(-0.000582059 0.913656 -0.406488)
(-1 0 0)
(-0.000584965 0.944313 -0.329048)
(-1 0 0)
(-0.000568772 0.96855 -0.248819)
(-1 0 0)
(-0.000566725 0.986009 -0.166688)
(-1 0 0)
(-0.000585063 0.996501 -0.0835837)
(-1 0 0)
(-0.000586609 1 0)
(-1 0 0)
(-0.000585063 0.996501 0.0835837)
(-0.000566725 0.986009 0.166688)
(-1 0 0)
(-0.000568772 0.96855 0.248819)
(-1 0 0)
(-0.000584965 0.944313 0.329048)
(-1 0 0)
(-0.000582059 0.913656 0.406488)
(-1 0 0)
(-0.000560678 0.876245 0.481865)
(-1 0 0)
(-0.000576792 0.832842 0.55351)
(-1 0 0)
(-0.000561798 0.783825 0.620982)
(-1 0 0)
(-0.000546989 0.729036 0.684475)
(-1 0 0)
(-0.000537637 0.669123 0.743151)
(-1 0 0)
(-0.00053195 0.604545 0.796571)
(-1 0 0)
(-0.000527159 0.535789 0.844352)
(-1 0 0)
(-0.000508311 0.46342 0.886139)
(-1 0 0)
(-0.000495646 0.387387 0.921917)
(-1 0 0)
(-0.000492732 0.309054 0.951044)
(-1 0 0)
(-0.000473389 0.228391 0.973569)
(-1 0 0)
(-0.000458249 0.146052 0.989277)
(-1 0 0)
(-0.000446555 0.0627769 0.998027)
(-1 0 0)
(-0.000430692 -0.0209124 0.999781)
(-1 0 0)
(-0.000412369 -0.104563 0.994518)
(-1 0 0)
(-0.000395676 -0.187337 0.982296)
(-1 0 0)
(-0.000384159 -0.269019 0.963135)
(-1 0 0)
(-0.000353948 -0.348474 0.937318)
(-1 0 0)
(-0.000342097 -0.425877 0.904781)
(-1 0 0)
(-0.000318528 -0.499853 0.86611)
(-1 0 0)
(-0.000295859 -0.570765 0.821113)
(-1 0 0)
(-0.000279485 -0.637513 0.77044)
(-1 0 0)
(-0.000255951 -0.699641 0.714495)
(-1 0 0)
(-0.000234022 -0.757027 0.653384)
(-1 0 0)
(-0.000207514 -0.808948 0.58788)
(-1 0 0)
(-0.000160198 -0.855294 0.518143)
(-1 0 0)
(-0.000145376 -0.895702 0.444654)
(-1 0 0)
(-0.000130173 -0.929902 0.367808)
(-1 0 0)
(-7.26126e-05 -0.957209 0.289396)
(-1 0 0)
(-4.84804e-05 -0.97818 0.207761)
(-1 0 0)
(-4.13722e-05 -0.99214 0.125136)
(-1 0 0)
)

// normal volume types

296
(
0
0
0
0
0
0
0
0
0
0
0
0
0
0
0
0
0
0
0
0
0
0
0
0
0
0
0
0
0
0
0
0
0
0
0
0
0
0
0
0
0
0
0
0
0
0
0
0
0
0
0
0
0
0
0
0
0
0
0
0
0
0
0
0
0
0
0
0
0
0
0
0
0
0
0
0
0
0
0
0
0
0
0
0
0
0
0
0
0
0
0
0
0
0
0
0
0
0
0
0
0
0
0
0
0
0
0
0
0
0
0
0
0
0
0
0
0
0
0
0
0
0
0
0
0
0
0
0
0
0
0
0
0
0
0
0
0
0
0
0
0
0
0
0
0
0
0
0
0
0
0
0
0
0
0
0
0
0
0
0
0
0
0
0
0
0
0
0
0
0
0
0
0
0
0
0
0
0
0
0
0
0
0
0
0
0
0
0
0
0
0
0
0
0
0
0
0
0
0
0
0
0
0
0
0
0
0
0
0
0
0
0
0
0
0
0
0
0
0
0
0
0
0
0
0
0
0
0
0
0
0
0
0
0
0
0
0
0
0
0
0
0
0
0
0
0
0
0
0
0
0
0
0
0
0
0
0
0
0
0
0
0
0
0
0
0
0
0
0
0
0
0
0
0
0
0
0
0
0
0
0
0
0
0
0
0
0
0
0
0
0
0
0
0
0
0
)

// normalDirections

150
(
2(1 -1)
2(1 -1)
2(1 -1)
2(1 -1)
2(1 -1)
2(1 -1)
2(1 -1)
2(1 -1)
2(1 -1)
2(1 -1)
2(1 -1)
2(1 -1)
2(1 -1)
2(1 -1)
2(1 -1)
2(1 -1)
2(1 -1)
2(1 -1)
2(1 -1)
2(1 -1)
2(1 -1)
2(1 -1)
2(1 -1)
2(1 -1)
2(1 -1)
2(1 -1)
2(1 -1)
2(1 -1)
2(1 -1)
2(1 -1)
2(1 -1)
2(1 -1)
2(1 -1)
2(1 -1)
2(1 -1)
2(1 -1)
2(1 -1)
2(1 -1)
2(1 -1)
2(1 -1)
2(1 -1)
2(1 -1)
2(1 -1)
2(1 -1)
2(1 -1)
2(1 -1)
2(1 -1)
2(1 -1)
2(1 -1)
2(1 -1)
2(1 -1)
2(1 -1)
2(1 -1)
2(1 -1)
2(1 -1)
2(1 -1)
2(1 -1)
2(1 -1)
2(1 -1)
2(1 -1)
2(1 -1)
2(1 -1)
2(1 -1)
2(1 -1)
2(1 -1)
2(1 -1)
2(1 -1)
2(1 -1)
2(1 -1)
2(1 -1)
2(1 -1)
2(1 -1)
2(1 -1)
2(1 -1)
2(1 -1)
2(1 -1)
2(1 -1)
2(1 -1)
2(1 -1)
2(1 -1)
2(1 -1)
2(1 -1)
2(1 -1)
2(1 -1)
2(1 -1)
2(1 -1)
2(1 -1)
2(1 -1)
2(1 -1)
2(1 -1)
2(1 -1)
2(1 -1)
2(1 -1)
2(1 -1)
2(1 -1)
2(1 -1)
2(1 -1)
2(1 -1)
2(1 -1)
2(1 -1)
2(1 -1)
2(1 -1)
2(1 -1)
2(1 -1)
2(1 -1)
2(1 -1)
2(1 -1)
2(1 -1)
2(1 -1)
2(1 -1)
2(1 -1)
2(1 -1)
2(1 -1)
2(1 -1)
2(1 -1)
2(1 -1)
2(1 -1)
2(1 -1)
2(1 -1)
2(1 -1)
2(1 -1)
2(1 -1)
2(1 -1)
2(1 -1)
2(1 -1)
2(1 -1)
2(1 -1)
2(1 -1)
2(1 -1)
2(1 -1)
2(1 -1)
2(1 -1)
2(1 -1)
2(1 -1)
2(1 -1)
2(1 -1)
2(1 -1)
2(1 -1)
2(1 -1)
2(1 -1)
2(1 -1)
2(1 -1)
2(1 -1)
2(1 -1)
2(1 -1)
2(1 -1)
2(1 -1)
2(1 -1)
2(1 -1)
2(1 -1)
)

// edgeNormals

150
(
2(0 1)
2(2 1)
2(3 4)
2(5 6)
2(7 8)
2(9 10)
2(11 12)
2(13 14)
2(15 16)
2(17 18)
2(19 20)
2(21 22)
2(23 24)
2(25 26)
2(27 28)
2(29 30)
2(31 32)
2(33 34)
2(35 36)
2(37 38)
2(39 40)
2(41 42)
2(43 44)
2(45 46)
2(47 48)
2(49 50)
2(51 52)
2(53 54)
2(55 56)
2(57 58)
2(59 60)
2(61 62)
2(63 64)
2(65 66)
2(67 68)
2(69 70)
2(71 72)
2(73 74)
2(75 76)
2(77 76)
2(78 79)
2(80 81)
2(82 83)
2(84 85)
2(86 87)
2(88 89)
2(90 91)
2(92 93)
2(94 95)
2(96 97)
2(98 99)
2(100 101)
2(102 103)
2(104 105)
2(106 107)
2(108 109)
2(110 111)
2(112 113)
2(114 115)
2(116 117)
2(118 119)
2(120 121)
2(122 123)
2(124 125)
2(126 127)
2(128 129)
2(130 131)
2(132 133)
2(134 135)
2(136 137)
2(138 139)
2(140 141)
2(142 143)
2(144 145)
2(146 147)
2(148 149)
2(150 149)
2(151 152)
2(153 154)
2(155 156)
2(157 158)
2(159 160)
2(161 162)
2(163 164)
2(165 166)
2(167 168)
2(169 170)
2(171 172)
2(173 174)
2(175 176)
2(177 178)
2(179 180)
2(181 182)
2(183 184)
2(185 186)
2(187 188)
2(189 190)
2(191 192)
2(193 194)
2(195 196)
2(197 198)
2(199 200)
2(201 202)
2(203 204)
2(205 206)
2(207 208)
2(209 210)
2(211 212)
2(213 214)
2(215 216)
2(217 218)
2(219 220)
2(221 222)
2(223 224)
2(225 224)
2(226 227)
2(228 229)
2(230 231)
2(232 233)
2(234 235)
2(236 237)
2(238 239)
2(240 241)
2(242 243)
2(244 245)
2(246 247)
2(248 249)
2(250 251)
2(252 253)
2(254 255)
2(256 257)
2(258 259)
2(260 261)
2(262 263)
2(264 265)
2(266 267)
2(268 269)
2(270 271)
2(272 273)
2(274 275)
2(276 277)
2(278 279)
2(280 281)
2(282 283)
2(284 285)
2(286 287)
2(288 289)
2(290 291)
2(292 293)
2(294 295)
)

// featurePointNormals
0()
// featurePointEdges
0()
// regionEdges

150
(
0
1
2
3
4
5
6
7
8
9
10
11
12
13
14
15
16
17
18
19
20
21
22
23
24
25
26
27
28
29
30
31
32
33
34
35
36
37
38
39
40
41
42
43
44
45
46
47
48
49
50
51
52
53
54
55
56
57
58
59
60
61
62
63
64
65
66
67
68
69
70
71
72
73
74
75
76
77
78
79
80
81
82
83
84
85
86
87
88
89
90
91
92
93
94
95
96
97
98
99
100
101
102
103
104
105
106
107
108
109
110
111
112
113
114
115
116
117
118
119
120
121
122
123
124
125
126
127
128
129
130
131
132
133
134
135
136
137
138
139
140
141
142
143
144
145
146
147
148
149
)



// ************************************************************************* //
