/*--------------------------------*- C++ -*----------------------------------*\
| =========                 |                                                 |
| \\      /  F ield         | OpenFOAM: The Open Source CFD Toolbox           |
|  \\    /   O peration     | Version:  v2006                                 |
|   \\  /    A nd           | Website:  www.openfoam.com                      |
|    \\/     M anipulation  |                                                 |
\*---------------------------------------------------------------------------*/
FoamFile
{
    version     2.0;
    format      ascii;
    class       volVectorField;
    object      U;
}
// * * * * * * * * * * * * * * * * * * * * * * * * * * * * * * * * * * * * * //

dimensions      [0 1 -1 0 0 0 0];

internalField   uniform (0 0 0);

boundaryField
{
    
    inlet
    {
		type				groovyBC;
		variables (
			"freq=5.00;"
			"amp=0.0020;"
            "vel=0.010;"
            "yp=pts().y;"
            "minY=min(yp);"
            "maxY=max(yp);"
            "zp=pts().z;"
            "minZ=min(zp);"
            "maxZ=max(zp);"
            
            "paray=-(maxY-pos().y)*(pos().y-minY)/(pow(maxY-minY,2));"
            "paraz=-(maxZ-pos().z)*(pos().z-minZ)/(pow(maxZ-minZ,2));"
            "para= (paray+paraz)/0.25*normal();"
		);
		valueExpression "para*(vel+(2*pi*freq*amp*sin(2*pi*freq*time())))";
        value uniform      (0.01 0 0);

    }
    outlet
    {
        type            zeroGradient;
    }
    wall
    {
		type		noSlip;
    }

}
// ************************************************************************* //
