/*--------------------------------*- C++ -*----------------------------------*\
| =========                 |                                                 |
| \\      /  F ield         | OpenFOAM: The Open Source CFD Toolbox           |
|  \\    /   O peration     | Version:  v1806                                 |
|   \\  /    A nd           | Web:      www.OpenFOAM.com                      |
|    \\/     M anipulation  |                                                 |
\*---------------------------------------------------------------------------*/
FoamFile
{
    version     2.0;
    format      ascii;
    class       dictionary;
    object      blockMeshDict;
}
// * * * * * * * * * * * * * * * * * * * * * * * * * * * * * * * * * * * * * //

scale   1;

// the updated blockMesh (openfoam.com) fails on some meshes with default options;
// it reports report inconsistent number of faces although the mesh is still OK.
// this happens where two 'wedge' blocks with different numbers of cells join in the same
// point/edge.
mergeType points;
checkFaceCorrespondence false;



vertices
(
    
    (-0.01217949 -0.01250000 0.00003906) // 0
    (-0.01217949 -0.01349969 0.00007962) // 1
    (-0.01250000 -0.01349969 0.00007962) // 2
    (-0.01250000 -0.01250000 0.00003906) // 3
    (-0.01217949 -0.01250000 -0.00094531) // 4
    (-0.01217949 -0.01325781 -0.00067977) // 5
    (-0.01250000 -0.01325781 -0.00067977) // 6
    (-0.01250000 -0.01250000 -0.00094531) // 7
    (-0.01185897 -0.01250000 0.00003906) // 8
    (-0.01185897 -0.01349969 0.00007962) // 9
    (-0.01185897 -0.01250000 -0.00094531) // 10
    (-0.01185897 -0.01325781 -0.00067977) // 11
    (-0.01153846 -0.01250000 0.00003906) // 12
    (-0.01153846 -0.01349969 0.00007962) // 13
    (-0.01153846 -0.01250000 -0.00094531) // 14
    (-0.01153846 -0.01325781 -0.00067977) // 15
    (-0.01121795 -0.01250000 0.00003906) // 16
    (-0.01121795 -0.01349969 0.00007962) // 17
    (-0.01121795 -0.01250000 -0.00094531) // 18
    (-0.01121795 -0.01325781 -0.00067977) // 19
    (-0.01089744 -0.01250000 0.00003906) // 20
    (-0.01089744 -0.01349969 0.00007962) // 21
    (-0.01089744 -0.01250000 -0.00094531) // 22
    (-0.01089744 -0.01325781 -0.00067977) // 23
    (-0.01057692 -0.01250000 0.00003906) // 24
    (-0.01057692 -0.01349969 0.00007962) // 25
    (-0.01057692 -0.01250000 -0.00094531) // 26
    (-0.01057692 -0.01325781 -0.00067977) // 27
    (-0.01025641 -0.01250000 0.00003906) // 28
    (-0.01025641 -0.01349969 0.00007962) // 29
    (-0.01025641 -0.01250000 -0.00094531) // 30
    (-0.01025641 -0.01325781 -0.00067977) // 31
    (-0.00993590 -0.01250000 0.00003906) // 32
    (-0.00993590 -0.01349969 0.00007962) // 33
    (-0.00993590 -0.01250000 -0.00094531) // 34
    (-0.00993590 -0.01325781 -0.00067977) // 35
    (-0.00961538 -0.01250000 0.00003906) // 36
    (-0.00961538 -0.01349969 0.00007962) // 37
    (-0.00961538 -0.01250000 -0.00094531) // 38
    (-0.00961538 -0.01325781 -0.00067977) // 39
    (-0.00929487 -0.01250000 0.00003906) // 40
    (-0.00929487 -0.01349969 0.00007962) // 41
    (-0.00929487 -0.01250000 -0.00094531) // 42
    (-0.00929487 -0.01325781 -0.00067977) // 43
    (-0.00897436 -0.01250000 0.00003906) // 44
    (-0.00897436 -0.01349969 0.00007962) // 45
    (-0.00897436 -0.01250000 -0.00094531) // 46
    (-0.00897436 -0.01325781 -0.00067977) // 47
    (-0.00865385 -0.01250000 0.00003906) // 48
    (-0.00865385 -0.01349969 0.00007962) // 49
    (-0.00865385 -0.01250000 -0.00094531) // 50
    (-0.00865385 -0.01325781 -0.00067977) // 51
    (-0.00833333 -0.01250000 0.00003906) // 52
    (-0.00833333 -0.01349969 0.00007962) // 53
    (-0.00833333 -0.01250000 -0.00094531) // 54
    (-0.00833333 -0.01325781 -0.00067977) // 55
    (-0.00801282 -0.01250000 0.00003906) // 56
    (-0.00801282 -0.01349969 0.00007962) // 57
    (-0.00801282 -0.01250000 -0.00094531) // 58
    (-0.00801282 -0.01325781 -0.00067977) // 59
    (-0.00769231 -0.01250000 0.00003906) // 60
    (-0.00769231 -0.01349969 0.00007962) // 61
    (-0.00769231 -0.01250000 -0.00094531) // 62
    (-0.00769231 -0.01325781 -0.00067977) // 63
    (-0.00737179 -0.01250000 0.00003906) // 64
    (-0.00737179 -0.01349969 0.00007962) // 65
    (-0.00737179 -0.01250000 -0.00094531) // 66
    (-0.00737179 -0.01325781 -0.00067977) // 67
    (-0.00705128 -0.01250000 0.00003906) // 68
    (-0.00705128 -0.01349969 0.00007962) // 69
    (-0.00705128 -0.01250000 -0.00094531) // 70
    (-0.00705128 -0.01325781 -0.00067977) // 71
    (-0.00673077 -0.01250000 0.00003906) // 72
    (-0.00673077 -0.01349969 0.00007962) // 73
    (-0.00673077 -0.01250000 -0.00094531) // 74
    (-0.00673077 -0.01325781 -0.00067977) // 75
    (-0.00641026 -0.01250000 0.00003906) // 76
    (-0.00641026 -0.01349969 0.00007962) // 77
    (-0.00641026 -0.01250000 -0.00094531) // 78
    (-0.00641026 -0.01325781 -0.00067977) // 79
    (-0.00608974 -0.01250000 0.00003906) // 80
    (-0.00608974 -0.01349969 0.00007962) // 81
    (-0.00608974 -0.01250000 -0.00094531) // 82
    (-0.00608974 -0.01325781 -0.00067977) // 83
    (-0.00576923 -0.01250000 0.00004000) // 84
    (-0.00576923 -0.01349969 0.00008043) // 85
    (-0.00576923 -0.01250000 -0.00094517) // 86
    (-0.00576923 -0.01325781 -0.00067922) // 87
    (-0.00544872 -0.01250000 0.00004187) // 88
    (-0.00544872 -0.01349969 0.00008205) // 89
    (-0.00544872 -0.01250000 -0.00094487) // 90
    (-0.00544872 -0.01325781 -0.00067811) // 91
    (-0.00512821 -0.01250000 0.00004468) // 92
    (-0.00512821 -0.01349969 0.00008448) // 93
    (-0.00512821 -0.01250000 -0.00094444) // 94
    (-0.00512821 -0.01325781 -0.00067645) // 95
    (-0.00480769 -0.01250000 0.00004842) // 96
    (-0.00480769 -0.01349969 0.00008772) // 97
    (-0.00480769 -0.01250000 -0.00094385) // 98
    (-0.00480769 -0.01325781 -0.00067424) // 99
    (-0.00448718 -0.01250000 0.00005310) // 100
    (-0.00448718 -0.01349969 0.00009177) // 101
    (-0.00448718 -0.01250000 -0.00094312) // 102
    (-0.00448718 -0.01325781 -0.00067147) // 103
    (-0.00416667 -0.01250000 0.00005872) // 104
    (-0.00416667 -0.01349969 0.00009663) // 105
    (-0.00416667 -0.01250000 -0.00094224) // 106
    (-0.00416667 -0.01325781 -0.00066816) // 107
    (-0.00384615 -0.01250000 0.00006527) // 108
    (-0.00384615 -0.01349969 0.00010230) // 109
    (-0.00384615 -0.01250000 -0.00094122) // 110
    (-0.00384615 -0.01325781 -0.00066428) // 111
    (-0.00352564 -0.01250000 0.00007275) // 112
    (-0.00352564 -0.01349969 0.00010878) // 113
    (-0.00352564 -0.01250000 -0.00094005) // 114
    (-0.00352564 -0.01325781 -0.00065986) // 115
    (-0.00320513 -0.01250000 0.00008118) // 116
    (-0.00320513 -0.01349969 0.00011607) // 117
    (-0.00320513 -0.01250000 -0.00093874) // 118
    (-0.00320513 -0.01325781 -0.00065488) // 119
    (-0.00288462 -0.01250000 0.00009053) // 120
    (-0.00288462 -0.01349969 0.00012417) // 121
    (-0.00288462 -0.01250000 -0.00093728) // 122
    (-0.00288462 -0.01325781 -0.00064935) // 123
    (-0.00256410 -0.01250000 0.00010083) // 124
    (-0.00256410 -0.01349969 0.00013308) // 125
    (-0.00256410 -0.01250000 -0.00093567) // 126
    (-0.00256410 -0.01325781 -0.00064327) // 127
    (-0.00224359 -0.01250000 0.00011206) // 128
    (-0.00224359 -0.01349969 0.00014280) // 129
    (-0.00224359 -0.01250000 -0.00093392) // 130
    (-0.00224359 -0.01325781 -0.00063663) // 131
    (-0.00192308 -0.01250000 0.00012422) // 132
    (-0.00192308 -0.01349969 0.00015333) // 133
    (-0.00192308 -0.01250000 -0.00093202) // 134
    (-0.00192308 -0.01325781 -0.00062944) // 135
    (-0.00160256 -0.01250000 0.00013733) // 136
    (-0.00160256 -0.01349969 0.00016467) // 137
    (-0.00160256 -0.01250000 -0.00092997) // 138
    (-0.00160256 -0.01325781 -0.00062170) // 139
    (-0.00128205 -0.01250000 0.00015136) // 140
    (-0.00128205 -0.01349969 0.00017682) // 141
    (-0.00128205 -0.01250000 -0.00092778) // 142
    (-0.00128205 -0.01325781 -0.00061340) // 143
    (-0.00096154 -0.01250000 0.00016634) // 144
    (-0.00096154 -0.01349969 0.00018978) // 145
    (-0.00096154 -0.01250000 -0.00092544) // 146
    (-0.00096154 -0.01325781 -0.00060455) // 147
    (-0.00064103 -0.01250000 0.00018225) // 148
    (-0.00064103 -0.01349969 0.00020355) // 149
    (-0.00064103 -0.01250000 -0.00092296) // 150
    (-0.00064103 -0.01325781 -0.00059515) // 151
    (-0.00032051 -0.01250000 0.00019909) // 152
    (-0.00032051 -0.01349969 0.00021813) // 153
    (-0.00032051 -0.01250000 -0.00092033) // 154
    (-0.00032051 -0.01325781 -0.00058519) // 155
    (-0.00000000 -0.01250000 0.00021688) // 156
    (-0.00000000 -0.01349969 0.00023352) // 157
    (-0.00000000 -0.01250000 -0.00091755) // 158
    (-0.00000000 -0.01325781 -0.00057468) // 159
    (0.00040897 -0.01248741 0.00024052) // 160
    (0.00044246 -0.01349704 0.00025547) // 161
    (0.00041868 -0.01248967 -0.00091479) // 162
    (0.00043951 -0.01324856 -0.00055965) // 163
    (0.00081715 -0.01246165 0.00026570) // 164
    (0.00088474 -0.01347982 0.00027894) // 165
    (0.00083647 -0.01246544 -0.00091184) // 166
    (0.00087831 -0.01322486 -0.00054356) // 167
    (0.00122410 -0.01242275 0.00029246) // 168
    (0.00132635 -0.01344805 0.00030397) // 169
    (0.00125291 -0.01242737 -0.00090775) // 170
    (0.00131592 -0.01318676 -0.00052603) // 171
    (0.00162943 -0.01237077 0.00032069) // 172
    (0.00176681 -0.01340173 0.00033042) // 173
    (0.00166755 -0.01237553 -0.00090198) // 174
    (0.00175188 -0.01313432 -0.00050702) // 175
    (0.00203270 -0.01230577 0.00035030) // 176
    (0.00220565 -0.01334093 0.00035822) // 177
    (0.00207995 -0.01230999 -0.00089458) // 178
    (0.00218572 -0.01306760 -0.00048660) // 179
    (0.00243351 -0.01222783 0.00038130) // 180
    (0.00264237 -0.01326569 0.00038736) // 181
    (0.00248964 -0.01223087 -0.00088557) // 182
    (0.00261698 -0.01298669 -0.00046478) // 183
    (0.00283145 -0.01213704 0.00041367) // 184
    (0.00307651 -0.01317610 0.00041785) // 185
    (0.00289619 -0.01213828 -0.00087495) // 186
    (0.00304520 -0.01289170 -0.00044157) // 187
    (0.00322612 -0.01203350 0.00044741) // 188
    (0.00350759 -0.01307223 0.00044968) // 189
    (0.00329917 -0.01203234 -0.00086273) // 190
    (0.00346991 -0.01278274 -0.00041696) // 191
    (0.00361711 -0.01191733 0.00048251) // 192
    (0.00393514 -0.01295420 0.00048284) // 193
    (0.00369813 -0.01191319 -0.00084891) // 194
    (0.00389069 -0.01265993 -0.00039097) // 195
    (0.00400403 -0.01178866 0.00051898) // 196
    (0.00435870 -0.01282214 0.00051735) // 197
    (0.00409266 -0.01178100 -0.00083350) // 198
    (0.00430706 -0.01252343 -0.00036359) // 199
    (0.00438648 -0.01164763 0.00055681) // 200
    (0.00477779 -0.01267616 0.00055319) // 201
    (0.00448233 -0.01163594 -0.00081650) // 202
    (0.00471861 -0.01237340 -0.00033482) // 203
    (0.00476407 -0.01149439 0.00059600) // 204
    (0.00519196 -0.01251644 0.00059037) // 205
    (0.00486673 -0.01147817 -0.00079793) // 206
    (0.00512489 -0.01220999 -0.00030467) // 207
    (0.00513642 -0.01132910 0.00063654) // 208
    (0.00560076 -0.01234312 0.00062889) // 209
    (0.00524545 -0.01130791 -0.00077778) // 210
    (0.00552547 -0.01203342 -0.00027315) // 211
    (0.00550316 -0.01115194 0.00067843) // 212
    (0.00600374 -0.01215641 0.00066874) // 213
    (0.00561809 -0.01112537 -0.00075607) // 214
    (0.00591993 -0.01184386 -0.00024025) // 215
    (0.00586391 -0.01096310 0.00072167) // 216
    (0.00640045 -0.01195649 0.00070993) // 217
    (0.00598427 -0.01093075 -0.00073280) // 218
    (0.00630786 -0.01164154 -0.00020597) // 219
    (0.00621830 -0.01076278 0.00076625) // 220
    (0.00679048 -0.01174358 0.00075246) // 221
    (0.00634359 -0.01072429 -0.00070796) // 222
    (0.00668885 -0.01142668 -0.00017033) // 223
    (0.00656597 -0.01055118 0.00081219) // 224
    (0.00717338 -0.01151790 0.00079632) // 225
    (0.00669569 -0.01050625 -0.00068158) // 226
    (0.00706250 -0.01119953 -0.00013331) // 227
    (0.00690658 -0.01032854 0.00085946) // 228
    (0.00754873 -0.01127969 0.00084151) // 229
    (0.00704020 -0.01027688 -0.00065364) // 230
    (0.00742842 -0.01096033 -0.00009493) // 231
    (0.00723978 -0.01009508 0.00090808) // 232
    (0.00791614 -0.01102921 0.00088805) // 233
    (0.00737675 -0.01003643 -0.00062416) // 234
    (0.00778623 -0.01070934 -0.00005518) // 235
    (0.00756523 -0.00985105 0.00095702) // 236
    (0.00827518 -0.01076672 0.00093502) // 237
    (0.00770501 -0.00978521 -0.00059328) // 238
    (0.00813555 -0.01044685 -0.00001466) // 239
    (0.00788260 -0.00959669 0.00100628) // 240
    (0.00862548 -0.01049251 0.00098244) // 241
    (0.00802464 -0.00952348 -0.00056100) // 242
    (0.00847603 -0.01017314 0.00002662) // 243
    (0.00819157 -0.00933228 0.00105586) // 244
    (0.00896665 -0.01020686 0.00103030) // 245
    (0.00833531 -0.00925156 -0.00052732) // 246
    (0.00880730 -0.00988850 0.00006866) // 247
    (0.00849182 -0.00905808 0.00110576) // 248
    (0.00929831 -0.00991009 0.00107861) // 249
    (0.00863670 -0.00896974 -0.00049225) // 250
    (0.00912902 -0.00959326 0.00011147) // 251
    (0.00878306 -0.00877438 0.00115598) // 252
    (0.00962009 -0.00960251 0.00112735) // 253
    (0.00892851 -0.00867836 -0.00045577) // 254
    (0.00944086 -0.00928772 0.00015504) // 255
    (0.00906498 -0.00848147 0.00120652) // 256
    (0.00993165 -0.00928445 0.00117654) // 257
    (0.00921044 -0.00837774 -0.00041790) // 258
    (0.00974249 -0.00897222 0.00019937) // 259
    (0.00933730 -0.00817965 0.00125738) // 260
    (0.01023265 -0.00895626 0.00122617) // 261
    (0.00948221 -0.00806821 -0.00037864) // 262
    (0.01003361 -0.00864710 0.00024447) // 263
    (0.00959975 -0.00786923 0.00130856) // 264
    (0.01052275 -0.00861828 0.00127625) // 265
    (0.00974354 -0.00775012 -0.00033797) // 266
    (0.01031391 -0.00831271 0.00029034) // 267
    (0.00985205 -0.00755053 0.00136006) // 268
    (0.01080163 -0.00827089 0.00132676) // 269
    (0.00999419 -0.00742382 -0.00029591) // 270
    (0.01058311 -0.00796941 0.00033697) // 271
    (0.01009395 -0.00722387 0.00141188) // 272
    (0.01106899 -0.00791445 0.00137772) // 273
    (0.01023389 -0.00708967 -0.00025245) // 274
    (0.01084092 -0.00761756 0.00038436) // 275
    (0.01032521 -0.00688958 0.00146402) // 276
    (0.01132454 -0.00754935 0.00142913) // 277
    (0.01046241 -0.00674805 -0.00020759) // 278
    (0.01108708 -0.00725754 0.00043251) // 279
    (0.01054559 -0.00654802 0.00151648) // 280
    (0.01156799 -0.00717599 0.00148097) // 281
    (0.01067953 -0.00639932 -0.00016133) // 282
    (0.01132134 -0.00688974 0.00048144) // 283
    (0.01075485 -0.00619952 0.00156926) // 284
    (0.01179907 -0.00679476 0.00153326) // 285
    (0.01088504 -0.00604386 -0.00011368) // 286
    (0.01154346 -0.00651454 0.00053112) // 287
    (0.01095280 -0.00584444 0.00162236) // 288
    (0.01201754 -0.00640608 0.00158599) // 289
    (0.01107874 -0.00568206 -0.00006462) // 290
    (0.01175321 -0.00613235 0.00058157) // 291
    (0.01113922 -0.00548315 0.00167578) // 292
    (0.01222315 -0.00601036 0.00163916) // 293
    (0.01126044 -0.00531432 -0.00001417) // 294
    (0.01195037 -0.00574357 0.00063278) // 295
    (0.01131393 -0.00511600 0.00172953) // 296
    (0.01241567 -0.00560804 0.00169278) // 297
    (0.01142997 -0.00494103 0.00003768) // 298
    (0.01213476 -0.00534861 0.00068476) // 299
    (0.01147674 -0.00474338 0.00178359) // 300
    (0.01259490 -0.00519955 0.00174684) // 301
    (0.01158716 -0.00456258 0.00009092) // 302
    (0.01230617 -0.00494789 0.00073750) // 303
    (0.01162748 -0.00436567 0.00183797) // 304
    (0.01276063 -0.00478533 0.00180134) // 305
    (0.01173188 -0.00417940 0.00014556) // 306
    (0.01246443 -0.00454184 0.00079101) // 307
    (0.01176600 -0.00398323 0.00189267) // 308
    (0.01291268 -0.00436582 0.00185628) // 309
    (0.01186399 -0.00379188 0.00020161) // 310
    (0.01260939 -0.00413088 0.00084528) // 311
    (0.01189216 -0.00359648 0.00194769) // 312
    (0.01305089 -0.00394149 0.00191167) // 313
    (0.01198337 -0.00340043 0.00025905) // 314
    (0.01274089 -0.00371545 0.00090031) // 315
    (0.01200581 -0.00320579 0.00200304) // 316
    (0.01317509 -0.00351279 0.00196750) // 317
    (0.01208991 -0.00300549 0.00031788) // 318
    (0.01285880 -0.00329598 0.00095611) // 319
    (0.01210685 -0.00281157 0.00205870) // 320
    (0.01328516 -0.00308019 0.00202377) // 321
    (0.01218351 -0.00260745 0.00037812) // 322
    (0.01296301 -0.00287291 0.00101267) // 323
    (0.01219515 -0.00241421 0.00211468) // 324
    (0.01338097 -0.00264414 0.00208048) // 325
    (0.01226411 -0.00220675 0.00043975) // 326
    (0.01305342 -0.00244668 0.00107000) // 327
    (0.01227064 -0.00201413 0.00217098) // 328
    (0.01346241 -0.00220513 0.00213764) // 329
    (0.01233163 -0.00180381 0.00050278) // 330
    (0.01312992 -0.00201776 0.00112809) // 331
    (0.01233321 -0.00161172 0.00222761) // 332
    (0.01352939 -0.00176363 0.00219524) // 333
    (0.01238602 -0.00139904 0.00056721) // 334
    (0.01319244 -0.00158657 0.00118694) // 335
    (0.01238281 -0.00120739 0.00228455) // 336
    (0.01358185 -0.00132012 0.00225328) // 337
    (0.01242723 -0.00099288 0.00063304) // 338
    (0.01324093 -0.00115358 0.00124656) // 339
    (0.01241937 -0.00080156 0.00234181) // 340
    (0.01361970 -0.00087507 0.00231177) // 341
    (0.01245526 -0.00058574 0.00070026) // 342
    (0.01327533 -0.00071924 0.00130695) // 343
    (0.01244286 -0.00039464 0.00239939) // 344
    (0.01364293 -0.00042897 0.00237070) // 345
    (0.01247007 -0.00017805 0.00076888) // 346
    (0.01329562 -0.00028400 0.00136809) // 347
    (0.01245323 0.00001296 0.00245730) // 348
    (0.01365149 0.00001769 0.00243007) // 349
    (0.01247168 0.00022976 0.00083890) // 350
    (0.01330177 0.00015168 0.00143000) // 351
    (0.01245046 0.00042081 0.00251552) // 352
    (0.01364537 0.00046444 0.00248988) // 353
    (0.01246009 0.00063727 0.00091032) // 354
    (0.01329378 0.00058736 0.00149268) // 355
    (0.01243456 0.00082852 0.00257407) // 356
    (0.01362458 0.00091079 0.00255014) // 357
    (0.01243534 0.00104407 0.00098313) // 358
    (0.01327166 0.00102257 0.00155612) // 359
    (0.01240553 0.00123565 0.00263293) // 360
    (0.01358914 0.00135626 0.00261083) // 361
    (0.01239747 0.00144972 0.00105735) // 362
    (0.01323544 0.00145686 0.00162032) // 363
    (0.01236338 0.00164180 0.00269211) // 364
    (0.01353909 0.00180036 0.00267198) // 365
    (0.01234652 0.00185382 0.00113296) // 366
    (0.01318515 0.00188978 0.00168529) // 367
    (0.01230816 0.00204655 0.00275162) // 368
    (0.01347447 0.00224262 0.00273356) // 369
    (0.01228258 0.00225595 0.00120997) // 370
    (0.01312085 0.00232088 0.00175102) // 371
    (0.01223989 0.00244949 0.00281144) // 372
    (0.01339535 0.00268255 0.00279559) // 373
    (0.01220571 0.00265570 0.00128837) // 374
    (0.01304260 0.00274972 0.00181752) // 375
    (0.01215865 0.00285019 0.00287159) // 376
    (0.01330183 0.00311968 0.00285806) // 377
    (0.01211601 0.00305265 0.00136818) // 378
    (0.01295050 0.00317584 0.00188478) // 379
    (0.01206450 0.00324826 0.00293205) // 380
    (0.01319399 0.00355354 0.00292097) // 381
    (0.01201359 0.00344640 0.00144938) // 382
    (0.01284463 0.00359880 0.00195281) // 383
    (0.01195753 0.00364328 0.00299283) // 384
    (0.01307196 0.00398365 0.00298432) // 385
    (0.01189857 0.00383655 0.00153198) // 386
    (0.01272511 0.00401817 0.00202159) // 387
    (0.01183782 0.00403485 0.00305394) // 388
    (0.01293586 0.00440955 0.00304812) // 389
    (0.01177107 0.00422270 0.00161598) // 390
    (0.01259205 0.00443350 0.00209115) // 391
    (0.01170550 0.00442256 0.00311536) // 392
    (0.01278584 0.00483077 0.00311236) // 393
    (0.01163124 0.00460447 0.00170137) // 394
    (0.01244560 0.00484437 0.00216146) // 395
    (0.01156068 0.00480602 0.00317711) // 396
    (0.01262206 0.00524687 0.00317704) // 397
    (0.01147923 0.00498146 0.00178817) // 398
    (0.01228590 0.00525035 0.00223255) // 399
    (0.01140349 0.00518482 0.00323918) // 400
    (0.01244470 0.00565739 0.00324217) // 401
    (0.01131521 0.00535329 0.00187636) // 402
    (0.01211313 0.00565102 0.00230439) // 403
    (0.01123408 0.00555858 0.00330156) // 404
    (0.01225394 0.00606188 0.00330774) // 405
    (0.01113936 0.00571959 0.00196595) // 406
    (0.01192745 0.00604597 0.00237700) // 407
    (0.01105261 0.00592690 0.00336427) // 408
    (0.01205000 0.00645992 0.00337375) // 409
    (0.01095187 0.00607999 0.00205693) // 410
    (0.01172907 0.00643477 0.00245038) // 411
    (0.01085925 0.00628941 0.00342729) // 412
    (0.01183309 0.00685106 0.00344020) // 413
    (0.01075294 0.00643413 0.00214932) // 414
    (0.01151818 0.00681704 0.00252451) // 415
    (0.01065418 0.00664572 0.00349064) // 416
    (0.01160344 0.00723488 0.00350710) // 417
    (0.01054278 0.00678165 0.00224310) // 418
    (0.01129499 0.00719237 0.00259942) // 419
    (0.01043760 0.00699547 0.00355430) // 420
    (0.01136131 0.00761097 0.00357443) // 421
    (0.01032161 0.00712219 0.00233828) // 422
    (0.01105974 0.00756037 0.00267508) // 423
    (0.01020970 0.00733829 0.00361829) // 424
    (0.01110695 0.00797892 0.00364222) // 425
    (0.01008967 0.00745543 0.00243486) // 426
    (0.01081267 0.00792067 0.00275151) // 427
    (0.00997071 0.00767381 0.00368260) // 428
    (0.01084064 0.00833833 0.00371044) // 429
    (0.00984719 0.00778103 0.00253283) // 430
    (0.01055403 0.00827288 0.00282871) // 431
    (0.00972078 0.00800163 0.00374709) // 432
    (0.01056268 0.00868884 0.00377892) // 433
    (0.00959435 0.00809869 0.00263155) // 434
    (0.01028402 0.00861664 0.00290631) // 435
    (0.00945989 0.00832115 0.00381129) // 436
    (0.01027345 0.00903016 0.00384701) // 437
    (0.00933102 0.00840817 0.00272866) // 438
    (0.01000269 0.00895160 0.00298306) // 439
    (0.00918831 0.00863199 0.00387517) // 440
    (0.00997324 0.00936192 0.00391464) // 441
    (0.00905745 0.00870915 0.00282398) // 442
    (0.00971031 0.00927738 0.00305884) // 443
    (0.00890632 0.00893378 0.00393872) // 444
    (0.00966237 0.00968379 0.00398182) // 445
    (0.00877391 0.00900125 0.00291750) // 446
    (0.00940718 0.00959360 0.00313365) // 447
    (0.00861424 0.00922616 0.00400194) // 448
    (0.00934116 0.00999541 0.00404855) // 449
    (0.00848068 0.00928416 0.00300921) // 450
    (0.00909362 0.00989991 0.00320751) // 451
    (0.00831238 0.00950880 0.00406483) // 452
    (0.00900996 0.01029646 0.00411483) // 453
    (0.00817807 0.00955754 0.00309913) // 454
    (0.00876994 0.01019596 0.00328039) // 455
    (0.00800108 0.00978136 0.00412739) // 456
    (0.00866909 0.01058663 0.00418065) // 457
    (0.00786638 0.00982106 0.00318725) // 458
    (0.00843649 0.01048142 0.00335232) // 459
    (0.00768069 0.01004352 0.00418963) // 460
    (0.00831893 0.01086559 0.00424602) // 461
    (0.00754594 0.01007442 0.00327357) // 462
    (0.00809361 0.01075595 0.00342327) // 463
    (0.00735155 0.01029498 0.00425153) // 464
    (0.00795984 0.01113306 0.00431094) // 465
    (0.00721708 0.01031733 0.00335808) // 466
    (0.00774166 0.01101923 0.00349327) // 467
    (0.00701403 0.01053543 0.00431311) // 468
    (0.00759218 0.01138874 0.00437540) // 469
    (0.00688013 0.01054948 0.00344080) // 470
    (0.00738102 0.01127098 0.00356230) // 471
    (0.00666851 0.01076460 0.00437436) // 472
    (0.00721635 0.01163238 0.00443941) // 473
    (0.00653547 0.01077061 0.00352172) // 474
    (0.00701205 0.01151088 0.00363036) // 475
    (0.00631538 0.01098221 0.00443528) // 476
    (0.00683273 0.01186370 0.00450297) // 477
    (0.00618343 0.01098045 0.00360083) // 478
    (0.00663516 0.01173867 0.00369746) // 479
    (0.00595502 0.01118800 0.00449587) // 480
    (0.00644174 0.01208246 0.00456608) // 481
    (0.00582441 0.01117875 0.00367815) // 482
    (0.00625074 0.01195408 0.00376359) // 483
    (0.00558784 0.01138174 0.00455614) // 484
    (0.00604376 0.01228842 0.00462873) // 485
    (0.00545877 0.01136526 0.00375367) // 486
    (0.00585920 0.01215686 0.00382876) // 487
    (0.00521425 0.01156319 0.00461607) // 488
    (0.00563924 0.01248136 0.00469093) // 489
    (0.00508691 0.01153976 0.00382738) // 490
    (0.00546096 0.01234676 0.00389296) // 491
    (0.00483468 0.01173214 0.00467568) // 492
    (0.00522857 0.01266109 0.00475268) // 493
    (0.00470922 0.01170203 0.00389930) // 494
    (0.00505644 0.01252357 0.00395620) // 495
    (0.00444954 0.01188839 0.00473496) // 496
    (0.00481220 0.01282739 0.00481398) // 497
    (0.00432611 0.01185188 0.00396942) // 498
    (0.00464607 0.01268706 0.00401847) // 499
    (0.00405927 0.01203175 0.00479391) // 500
    (0.00439056 0.01298009 0.00487482) // 501
    (0.00393799 0.01198910 0.00403773) // 502
    (0.00423030 0.01283705 0.00407978) // 503
    (0.00366431 0.01216205 0.00485253) // 504
    (0.00396410 0.01311902 0.00493521) // 505
    (0.00354528 0.01211352 0.00410425) // 506
    (0.00380957 0.01297334 0.00414013) // 507
    (0.00326510 0.01227914 0.00491082) // 508
    (0.00353325 0.01324404 0.00499515) // 509
    (0.00314841 0.01222500 0.00416897) // 510
    (0.00338434 0.01309578 0.00419951) // 511
    (0.00286210 0.01238288 0.00496879) // 512
    (0.00309847 0.01335500 0.00505463) // 513
    (0.00274780 0.01232336 0.00423188) // 514
    (0.00295506 0.01320422 0.00425792) // 515
    (0.00245576 0.01247313 0.00502642) // 516
    (0.00266021 0.01345178 0.00511366) // 517
    (0.00234389 0.01240850 0.00429300) // 518
    (0.00252220 0.01329850 0.00431537) // 519
    (0.00204653 0.01254981 0.00508373) // 520
    (0.00221894 0.01353427 0.00517224) // 521
    (0.00193712 0.01248028 0.00435231) // 522
    (0.00208623 0.01337852 0.00437185) // 523
    (0.00163489 0.01261280 0.00514071) // 524
    (0.00177512 0.01360238 0.00523037) // 525
    (0.00152794 0.01253860 0.00440983) // 526
    (0.00164761 0.01344416 0.00442737) // 527
    (0.00122130 0.01266203 0.00519736) // 528
    (0.00132921 0.01365603 0.00528804) // 529
    (0.00111680 0.01258338 0.00446555) // 530
    (0.00120683 0.01349533 0.00448193) // 531
    (0.00080621 0.01269745 0.00525368) // 532
    (0.00088168 0.01369515 0.00534526) // 533
    (0.00070415 0.01261455 0.00451946) // 534
    (0.00076437 0.01353197 0.00453552) // 535
    (0.00039012 0.01271901 0.00530968) // 536
    (0.00043300 0.01371970 0.00540203) // 537
    (0.00029045 0.01263203 0.00457158) // 538
    (0.00032071 0.01355401 0.00458814) // 539
    (-0.00002653 0.01272667 0.00536534) // 540
    (-0.00001636 0.01372964 0.00545835) // 541
    (-0.00012385 0.01263581 0.00462190) // 542
    (-0.00012366 0.01356141 0.00463980) // 543
    (-0.00044324 0.01272044 0.00542068) // 544
    (-0.00046592 0.01372496 0.00551421) // 545
    (-0.00053829 0.01262583 0.00467041) // 546
    (-0.00056827 0.01355414 0.00469050) // 547
    (-0.00085956 0.01270031 0.00547569) // 548
    (-0.00091521 0.01370564 0.00556962) // 549
    (-0.00095240 0.01260210 0.00471713) // 550
    (-0.00101262 0.01353220 0.00474023) // 551
    (-0.00127501 0.01266630 0.00553037) // 552
    (-0.00136376 0.01367171 0.00562458) // 553
    (-0.00136572 0.01256463 0.00476205) // 554
    (-0.00145622 0.01349559 0.00478899) // 555
    (-0.00168911 0.01261844 0.00558472) // 556
    (-0.00181109 0.01362319 0.00567909) // 557
    (-0.00177779 0.01251342 0.00480516) // 558
    (-0.00189859 0.01344433 0.00483679) // 559
    (-0.00210141 0.01255680 0.00563874) // 560
    (-0.00225674 0.01356011 0.00573314) // 561
    (-0.00218815 0.01244851 0.00484648) // 562
    (-0.00233924 0.01337846 0.00488363) // 563
    (-0.00251143 0.01248145 0.00569244) // 564
    (-0.00270024 0.01348254 0.00578674) // 565
    (-0.00259634 0.01236996 0.00488600) // 566
    (-0.00277769 0.01329804 0.00492950) // 567
    (-0.00291871 0.01239245 0.00574580) // 568
    (-0.00314111 0.01339056 0.00583988) // 569
    (-0.00300190 0.01227784 0.00492371) // 570
    (-0.00321344 0.01320314 0.00497441) // 571
    (-0.00332278 0.01228993 0.00579884) // 572
    (-0.00357888 0.01328424 0.00589258) // 573
    (-0.00340436 0.01217222 0.00495963) // 574
    (-0.00364602 0.01309385 0.00501835) // 575
    (-0.00372320 0.01217398 0.00585155) // 576
    (-0.00401311 0.01316369 0.00594482) // 577
    (-0.00380328 0.01205320 0.00499375) // 578
    (-0.00407495 0.01297026 0.00506132) // 579
    (-0.00411950 0.01204475 0.00590393) // 580
    (-0.00444332 0.01302902 0.00599661) // 581
    (-0.00419819 0.01192090 0.00502606) // 582
    (-0.00449975 0.01283251 0.00510333) // 583
    (-0.00451125 0.01190239 0.00595598) // 584
    (-0.00486906 0.01288038 0.00604794) // 585
    (-0.00458866 0.01177546 0.00505658) // 586
    (-0.00491996 0.01268072 0.00514438) // 587
    (-0.00489799 0.01174705 0.00600770) // 588
    (-0.00528988 0.01271790 0.00609883) // 589
    (-0.00497424 0.01161700 0.00508529) // 590
    (-0.00533509 0.01251505 0.00518446) // 591
    (-0.00527929 0.01157892 0.00605910) // 592
    (-0.00570534 0.01254175 0.00614926) // 593
    (-0.00535448 0.01144570 0.00511221) // 594
    (-0.00574470 0.01233566 0.00522358) // 595
    (-0.00565471 0.01139818 0.00611017) // 596
    (-0.00611498 0.01235209 0.00619924) // 597
    (-0.00572895 0.01126172 0.00513733) // 598
    (-0.00614831 0.01214274 0.00526173) // 599
    (-0.00602385 0.01120506 0.00616090) // 600
    (-0.00651837 0.01214913 0.00624876) // 601
    (-0.00609723 0.01106526 0.00516064) // 602
    (-0.00654549 0.01193649 0.00529892) // 603
    (-0.00638627 0.01099975 0.00621131) // 604
    (-0.00691509 0.01193306 0.00629784) // 605
    (-0.00645888 0.01085653 0.00518216) // 606
    (-0.00693579 0.01171712 0.00533514) // 607
    (-0.00674158 0.01078252 0.00626140) // 608
    (-0.00730471 0.01170411 0.00634645) // 609
    (-0.00681349 0.01063574 0.00520188) // 610
    (-0.00731877 0.01148486 0.00537040) // 611
    (-0.00708936 0.01055360 0.00631115) // 612
    (-0.00768682 0.01146249 0.00639462) // 613