/*--------------------------------*- C++ -*----------------------------------*\
| =========                 |                                                 |
| \\      /  F ield         | OpenFOAM: The Open Source CFD Toolbox           |
|  \\    /   O peration     | Version:  v1806                                 |
|   \\  /    A nd           | Web:      www.OpenFOAM.com                      |
|    \\/     M anipulation  |                                                 |
\*---------------------------------------------------------------------------*/
FoamFile
{
    version     2.0;
    format      ascii;
    class       dictionary;
    object      blockMeshDict;
}
// * * * * * * * * * * * * * * * * * * * * * * * * * * * * * * * * * * * * * //

scale   1;

// the updated blockMesh (openfoam.com) fails on some meshes with default options;
// it reports report inconsistent number of faces although the mesh is still OK.
// this happens where two 'wedge' blocks with different numbers of cells join in the same
// point/edge.
mergeType points;
checkFaceCorrespondence false;



vertices
(
    
    (0.00088408 -0.01247020 -0.00134819) // 0
    (0.00088306 -0.01355911 -0.00088567) // 1
    (0.00076048 -0.01397741 0.00021417) // 2
    (0.00069076 -0.01248090 0.00011525) // 3
    (0.00019362 -0.01250000 -0.00143963) // 4
    (0.00013242 -0.01358719 -0.00097711) // 5
    (-0.00001309 -0.01399807 0.00012273) // 6
    (-0.00000000 -0.01250000 0.00002381) // 7
    (0.00022895 -0.01428967 -0.00173051) // 8
    (0.00032790 -0.01250000 -0.00247840) // 9
    (0.00101877 -0.01426836 -0.00162442) // 10
    (0.00102355 -0.01246251 -0.00241506) // 11
    (-0.00000817 -0.01499922 0.00006179) // 12
    (0.00081878 -0.01497835 0.00018121) // 13
    (0.00059258 -0.01346489 0.00126715) // 14
    (0.00048382 -0.01234037 0.00161826) // 15
    (-0.00015240 -0.01347706 0.00117572) // 16
    (-0.00019885 -0.01234825 0.00152683) // 17
    (-0.00024037 -0.01420043 0.00181680) // 18
    (0.00054055 -0.01421129 0.00196152) // 19
    (-0.00032749 -0.01237539 0.00247532) // 20
    (0.00035726 -0.01237092 0.00257513) // 21
    (0.00050185 -0.01130338 0.00104908) // 22
    (0.00063545 -0.01099899 -0.00008633) // 23
    (-0.00012355 -0.01131384 0.00095764) // 24
    (0.00002667 -0.01101730 -0.00017777) // 25
    (-0.00021697 -0.01062555 0.00163992) // 26
    (0.00037019 -0.01062263 0.00174726) // 27
    (0.00002450 -0.01000699 -0.00018521) // 28
    (0.00057689 -0.00999396 -0.00007599) // 29
    (0.00080152 -0.01161656 -0.00108166) // 30
    (0.00015835 -0.01164310 -0.00117310) // 31
    (0.00025119 -0.01089303 -0.00189857) // 32
    (0.00085535 -0.01084725 -0.00181955) // 33
    (0.00157184 -0.01240229 -0.00125676) // 34
    (0.00163100 -0.01348959 -0.00079424) // 35
    (0.00153172 -0.01391403 0.00030560) // 36
    (0.00137941 -0.01242366 0.00020668) // 37
    (0.00180685 -0.01420286 -0.00151837) // 38
    (0.00171593 -0.01238635 -0.00235115) // 39
    (0.00164346 -0.01491206 0.00030008) // 40
    (0.00133576 -0.01341157 0.00135859) // 41
    (0.00116502 -0.01229477 0.00170970) // 42
    (0.00132200 -0.01417858 0.00210493) // 43
    (0.00104048 -0.01232865 0.00267496) // 44
    (0.00112572 -0.01125837 0.00114051) // 45
    (0.00124229 -0.01094707 0.00000511) // 46
    (0.00095638 -0.01058732 0.00185423) // 47
    (0.00112786 -0.00994966 0.00003276) // 48
    (0.00144223 -0.01155451 -0.00099022) // 49
    (0.00145517 -0.01076827 -0.00174040) // 50
    (0.00225480 -0.01229648 -0.00116532) // 51
    (0.00237395 -0.01337885 -0.00070280) // 52
    (0.00229827 -0.01380812 0.00039704) // 53
    (0.00206384 -0.01232845 0.00029812) // 54
    (0.00259068 -0.01409331 -0.00141236) // 55
    (0.00240289 -0.01227176 -0.00228667) // 56
    (0.00246339 -0.01480054 0.00041839) // 57
    (0.00207485 -0.01331726 0.00145003) // 58
    (0.00184266 -0.01221161 0.00180113) // 59
    (0.00210152 -0.01410227 0.00224703) // 60
    (0.00172009 -0.01224876 0.00277482) // 61
    (0.00174614 -0.01117896 0.00123195) // 62
    (0.00184534 -0.01086169 0.00009654) // 63
    (0.00153982 -0.01051971 0.00196083) // 64
    (0.00167560 -0.00987420 0.00014104) // 65
    (0.00207854 -0.01145716 -0.00089879) // 66
    (0.00204886 -0.01065644 -0.00166111) // 67
    (0.00293087 -0.01215309 -0.00107388) // 68
    (0.00310965 -0.01322722 -0.00061136) // 69
    (0.00305781 -0.01366002 0.00048848) // 70
    (0.00274196 -0.01219556 0.00038955) // 71
    (0.00336777 -0.01393999 -0.00130640) // 72
    (0.00308231 -0.01211913 -0.00222163) // 73
    (0.00327609 -0.01464411 0.00053614) // 74
    (0.00280760 -0.01318225 0.00154146) // 75
    (0.00251467 -0.01209112 0.00189257) // 76
    (0.00287665 -0.01398247 0.00238782) // 77
    (0.00239402 -0.01213149 0.00287470) // 78
    (0.00236123 -0.01106539 0.00132339) // 79
    (0.00244274 -0.01074312 0.00018798) // 80
    (0.00211873 -0.01041999 0.00206706) // 81
    (0.00221831 -0.00976784 0.00024884) // 82
    (0.00270849 -0.01132479 -0.00080735) // 83
    (0.00263461 -0.01051218 -0.00158169) // 84
    (0.00359798 -0.01197255 -0.00098245) // 85
    (0.00383584 -0.01303517 -0.00051993) // 86
    (0.00380800 -0.01347017 0.00057991) // 87
    (0.00341171 -0.01202540 0.00048099) // 88
    (0.00413564 -0.01374330 -0.00120048) // 89
    (0.00375209 -0.01192894 -0.00215603) // 90
    (0.00407911 -0.01444322 0.00065335) // 91
    (0.00353177 -0.01300696 0.00163290) // 92
    (0.00317899 -0.01193368 0.00198401) // 93
    (0.00364492 -0.01381945 0.00252729) // 94
    (0.00306024 -0.01197725 0.00297460) // 95
    (0.00296910 -0.01091799 0.00141482) // 96
    (0.00303268 -0.01059171 0.00027942) // 97
    (0.00269135 -0.01028846 0.00217292) // 98
    (0.00275420 -0.00963089 0.00035617) // 99
    (0.00333017 -0.01115781 -0.00071591) // 100
    (0.00321069 -0.01033603 -0.00150212) // 101
    (0.00425409 -0.01175543 -0.00089101) // 102
    (0.00455031 -0.01280328 -0.00042849) // 103
    (0.00454655 -0.01323915 0.00067135) // 104
    (0.00407103 -0.01181849 0.00057243) // 105
    (0.00489186 -0.01350383 -0.00109460) // 106
    (0.00441015 -0.01170181 -0.00208986) // 107
    (0.00487004 -0.01419846 0.00076999) // 108
    (0.00424515 -0.01279191 0.00172434) // 109
    (0.00383359 -0.01173978 0.00207544) // 110
    (0.00440389 -0.01361359 0.00266545) // 111
    (0.00371670 -0.01178651 0.00307452) // 112
    (0.00356790 -0.01073724 0.00150626) // 113
    (0.00361335 -0.01040794 0.00037085) // 114
    (0.00325592 -0.01012551 0.00227842) // 115
    (0.00328150 -0.00946380 0.00046303) // 116
    (0.00394167 -0.01095673 -0.00062448) // 117
    (0.00377537 -0.01012862 -0.00142242) // 118
    (0.00489720 -0.01150239 -0.00079957) // 119
    (0.00525088 -0.01253226 -0.00033706) // 120
    (0.00527121 -0.01296768 0.00076278) // 121
    (0.00471791 -0.01157546 0.00066386) // 122
    (0.00563401 -0.01322226 -0.00098876) // 123
    (0.00505446 -0.01143844 -0.00202313) // 124
    (0.00564648 -0.01391054 0.00088609) // 125
    (0.00494555 -0.01253778 0.00181577) // 126
    (0.00447648 -0.01150999 0.00216688) // 127
    (0.00515114 -0.01336543 0.00280230) // 128
    (0.00436142 -0.01155991 0.00317448) // 129
    (0.00415580 -0.01052366 0.00159769) // 130
    (0.00418298 -0.01019236 0.00046229) // 131
    (0.00381074 -0.00993161 0.00238355) // 132
    (0.00379850 -0.00926712 0.00056942) // 133
    (0.00454113 -0.01072217 -0.00053304) // 134
    (0.00432698 -0.00989067 -0.00134257) // 135
    (0.00552535 -0.01121419 -0.00070814) // 136
    (0.00593539 -0.01222294 -0.00024562) // 137
    (0.00597976 -0.01265657 0.00085422) // 138
    (0.00535036 -0.01129706 0.00075530) // 139
    (0.00635973 -0.01289944 -0.00088296) // 140
    (0.00568303 -0.01113967 -0.00195583) // 141
    (0.00640608 -0.01358032 0.00100162) // 142
    (0.00563084 -0.01224533 0.00190721) // 143
    (0.00510569 -0.01124503 0.00225832) // 144
    (0.00588428 -0.01307566 0.00293784) // 145
    (0.00499245 -0.01129813 0.00327445) // 146
    (0.00473099 -0.01027793 0.00168913) // 147
    (0.00473983 -0.00994563 0.00055372) // 148
    (0.00435411 -0.00970736 0.00248830) // 149
    (0.00430347 -0.00904150 0.00067533) // 150
    (0.00512670 -0.01045484 -0.00044161) // 151
    (0.00486388 -0.00962299 -0.00126259) // 152
    (0.00613661 -0.01089172 -0.00061670) // 153
    (0.00660177 -0.01187627 -0.00015418) // 154
    (0.00667003 -0.01230679 0.00094566) // 155
    (0.00596647 -0.01098413 0.00084674) // 156
    (0.00706669 -0.01253634 -0.00077721) // 157
    (0.00629391 -0.01080645 -0.00188796) // 158
    (0.00714655 -0.01320876 0.00111661) // 159
    (0.00629892 -0.01191545 0.00199864) // 160
    (0.00571930 -0.01094570 0.00234975) // 161
    (0.00660095 -0.01274507 0.00307206) // 162
    (0.00560787 -0.01100202 0.00337445) // 163
    (0.00529173 -0.01000079 0.00178057) // 164
    (0.00528219 -0.00966851 0.00064516) // 165
    (0.00488436 -0.00945342 0.00259270) // 166
    (0.00479478 -0.00878768 0.00078077) // 167
    (0.00569661 -0.01015556 -0.00035017) // 168
    (0.00538448 -0.00932647 -0.00118247) // 169
    (0.00672912 -0.01053596 -0.00052527) // 170
    (0.00724798 -0.01149331 -0.00006275) // 171
    (0.00733992 -0.01191939 0.00103709) // 172
    (0.00656435 -0.01063764 0.00093817) // 173
    (0.00775264 -0.01213407 -0.00067150) // 174
    (0.00688523 -0.01043982 -0.00181953) // 175
    (0.00786565 -0.01279697 0.00123103) // 176
    (0.00694775 -0.01154916 0.00209008) // 177
    (0.00631543 -0.01061292 0.00244119) // 178
    (0.00729887 -0.01237461 0.00320497) // 179
    (0.00620581 -0.01067249 0.00347447) // 180
    (0.00583629 -0.00969308 0.00187200) // 181
    (0.00580840 -0.00936184 0.00073660) // 182
    (0.00539988 -0.00917055 0.00269672) // 183
    (0.00527080 -0.00850650 0.00088574) // 184
    (0.00624911 -0.00982525 -0.00025873) // 185
    (0.00588726 -0.00900209 -0.00110221) // 186
    (0.00730106 -0.01014801 -0.00043383) // 187
    (0.00787203 -0.01107522 0.00002869) // 188
    (0.00798738 -0.01149557 0.00112853) // 189
    (0.00714216 -0.01025863 0.00102961) // 190
    (0.00841538 -0.01169385 -0.00056584) // 191
    (0.00745516 -0.01004093 -0.00175054) // 192
    (0.00856120 -0.01234616 0.00134491) // 193
    (0.00757535 -0.01114757 0.00218152) // 194
    (0.00689225 -0.01024771 0.00253262) // 195
    (0.00797577 -0.01196537 0.00333657) // 196
    (0.00678448 -0.01031057 0.00357452) // 197
    (0.00636302 -0.00935575 0.00196344) // 198
    (0.00631687 -0.00902656 0.00082803) // 199
    (0.00589908 -0.00885962 0.00280037) // 200
    (0.00572998 -0.00819891 0.00099023) // 201
    (0.00678251 -0.00946490 -0.00016730) // 202
    (0.00637074 -0.00865090 -0.00102181) // 203
    (0.00785069 -0.00972904 -0.00034239) // 204
    (0.00847203 -0.01062328 0.00012013) // 205
    (0.00861043 -0.01103661 0.00121997) // 206
    (0.00769815 -0.00984828 0.00112104) // 207
    (0.00905279 -0.01121704 -0.00046021) // 208
    (0.00800194 -0.00961102 -0.00168098) // 209
    (0.00923109 -0.01185768 0.00145822) // 210
    (0.00817980 -0.01071192 0.00227295) // 211
    (0.00744802 -0.00985118 0.00262406) // 212
    (0.00862948 -0.01151855 0.00346685) // 213
    (0.00734212 -0.00991738 0.00367459) // 214
    (0.00687031 -0.00898983 0.00205488) // 215
    (0.00680603 -0.00866369 0.00091947) // 216
    (0.00638046 -0.00852154 0.00290366) // 217
    (0.00617083 -0.00786593 0.00109425) // 218
    (0.00729518 -0.00907563 -0.00007586) // 219
    (0.00683351 -0.00827404 -0.00094127) // 220
    (0.00837633 -0.00928034 -0.00025096) // 221
    (0.00904613 -0.01013888 0.00021156) // 222
    (0.00920716 -0.01054393 0.00131140) // 223
    (0.00823061 -0.00940782 0.00121248) // 224
    (0.00966284 -0.01070512 -0.00035463) // 225
    (0.00852391 -0.00915145 -0.00161086) // 226
    (0.00987328 -0.01133297 0.00157099) // 227
    (0.00875925 -0.01024353 0.00236439) // 228
    (0.00798102 -0.00942455 0.00271550) // 229
    (0.00925787 -0.01103547 0.00359582) // 230
    (0.00787705 -0.00949414 0.00377468) // 231
    (0.00735659 -0.00859644 0.00214631) // 232
    (0.00727439 -0.00827434 0.00101091) // 233
    (0.00684252 -0.00815734 0.00300658) // 234
    (0.00659189 -0.00750868 0.00119780) // 235
    (0.00778556 -0.00865863 0.00001558) // 236
    (0.00727422 -0.00787273 -0.00086060) // 237
    (0.00887637 -0.00880327 -0.00015952) // 238
    (0.00959259 -0.00962349 0.00030300) // 239
    (0.00977576 -0.01001903 0.00140284) // 240
    (0.00873791 -0.00893862 0.00130392) // 241
    (0.01024357 -0.01015968 -0.00024909) // 242
    (0.00901945 -0.00866365 -0.00154017) // 243
    (0.01048582 -0.01077360 0.00168320) // 244
    (0.00931193 -0.00974384 0.00245583) // 245
    (0.00848963 -0.00896911 0.00280693) // 246
    (0.00985891 -0.01051760 0.00372348) // 247
    (0.00838766 -0.00904215 0.00387480) // 248
    (0.00782040 -0.00817677 0.00223775) // 249
    (0.00772052 -0.00785971 0.00110234) // 250
    (0.00728386 -0.00776813 0.00310912) // 251
    (0.00699182 -0.00712835 0.00130088) // 252
    (0.00825215 -0.00821516 0.00010701) // 253
    (0.00769160 -0.00744823 -0.00077978) // 254
    (0.00934928 -0.00829931 -0.00006808) // 255
    (0.01010973 -0.00907869 0.00039444) // 256
    (0.01031448 -0.00946350 0.00149428) // 257
    (0.00921851 -0.00844210 0.00139535) // 258
    (0.01079311 -0.00958243 -0.00014359) // 259
    (0.00948704 -0.00814913 -0.00146891) // 260
    (0.01106685 -0.01018123 0.00179485) // 261
    (0.00983615 -0.00921436 0.00254726) // 262
    (0.00897230 -0.00848626 0.00289837) // 263
    (0.01043065 -0.00996649 0.00384983) // 264
    (0.00887240 -0.00856282 0.00397494) // 265
    (0.00826030 -0.00773212 0.00232918) // 266
    (0.00814306 -0.00742106 0.00119378) // 267
    (0.00770313 -0.00735507 0.00321131) // 268
    (0.00736931 -0.00672622 0.00140348) // 269
    (0.00869351 -0.00774659 0.00019845) // 270
    (0.00808445 -0.00700189 -0.00069883) // 271
    (0.00979362 -0.00776998 0.00002335) // 272
    (0.01059598 -0.00850615 0.00048587) // 273
    (0.01082168 -0.00887905 0.00158571) // 274
    (0.00967094 -0.00791978 0.00148679) // 275
    (0.01130972 -0.00897515 -0.00003814) // 276
    (0.00992525 -0.00760950 -0.00139709) // 277
    (0.01161460 -0.00955762 0.00190595) // 278
    (0.01033031 -0.00865673 0.00263870) // 279
    (0.00942755 -0.00797748 0.00298981) // 280
    (0.01097121 -0.00938382 0.00397487) // 281
    (0.00932982 -0.00805761 0.00407510) // 282
    (0.00867496 -0.00726383 0.00242062) // 283
    (0.00854071 -0.00695973 0.00128521) // 284
    (0.00809903 -0.00691942 0.00331312) // 285
    (0.00772314 -0.00630364 0.00150561) // 286
    (0.00910831 -0.00725434 0.00028988) // 287
    (0.00845164 -0.00653512 -0.00061774) // 288
    (0.01020803 -0.00721690 0.00011479) // 289
    (0.01104984 -0.00790761 0.00057731) // 290
    (0.01129580 -0.00826747 0.00167715) // 291
    (0.01009382 -0.00737325 0.00157823) // 292
    (0.01179174 -0.00833977 0.00006727) // 293
    (0.01033275 -0.00704644 -0.00132471) // 294
    (0.01212738 -0.00890464 0.00201649) // 295
    (0.01079290 -0.00807264 0.00273014) // 296
    (0.00985398 -0.00744431 0.00308124) // 297
    (0.01147884 -0.00877138 0.00409859) // 298
    (0.00975855 -0.00752809 0.00417529) // 299
    (0.00906311 -0.00677335 0.00251206) // 300
    (0.00891226 -0.00647713 0.00137665) // 301
    (0.00847035 -0.00646249 0.00341456) // 302
    (0.00805220 -0.00586203 0.00160727) // 303
    (0.00949527 -0.00673993 0.00038132) // 304
    (0.00879212 -0.00604937 -0.00053650) // 305
    (0.01059124 -0.00664177 0.00020622) // 306
    (0.01146994 -0.00728490 0.00066874) // 307
    (0.01173541 -0.00763063 0.00176858) // 308
    (0.01048585 -0.00680419 0.00166966) // 309
    (0.01223762 -0.00767826 0.00017264) // 310
    (0.01070828 -0.00646170 -0.00125176) // 311
    (0.01260364 -0.00822423 0.00212648) // 312
    (0.01122251 -0.00746388 0.00282157) // 313
    (0.01025030 -0.00688840 0.00317268) // 314
    (0.01195188 -0.00813106 0.00422100) // 315
    (0.01015729 -0.00697586 0.00427550) // 316
    (0.00942356 -0.00626216 0.00260349) // 317
    (0.00925657 -0.00597473 0.00146809) // 318
    (0.00881595 -0.00598566 0.00351564) // 319
    (0.00835543 -0.00540288 0.00170845) // 320
    (0.00985322 -0.00620491 0.00047276) // 321
    (0.00910494 -0.00554617 -0.00045514) // 322
    (0.01094208 -0.00604634 0.00029766) // 323
    (0.01185498 -0.00663993 0.00076018) // 324
    (0.01213915 -0.00697046 0.00186002) // 325
    (0.01084583 -0.00621434 0.00176110) // 326
    (0.01264594 -0.00699271 0.00027797) // 327
    (0.01105070 -0.00585710 -0.00117825) // 328
    (0.01304190 -0.00751844 0.00223592) // 329
    (0.01161782 -0.00683232 0.00291301) // 330
    (0.01061530 -0.00631144 0.00326411) // 331
    (0.01238876 -0.00746483 0.00434209) // 332
    (0.01052486 -0.00640264 0.00437574) // 333
    (0.00975521 -0.00573184 0.00269493) // 334
    (0.00957260 -0.00545408 0.00155952) // 335
    (0.00913477 -0.00549039 0.00361635) // 336
    (0.00863187 -0.00492771 0.00180917) // 337
    (0.01018105 -0.00565093 0.00056419) // 338
    (0.00938920 -0.00502707 -0.00037363) // 339
    (0.01125949 -0.00543244 0.00038910) // 340
    (0.01220379 -0.00597467 0.00085162) // 341
    (0.01250579 -0.00628899 0.00195146) // 342
    (0.01117266 -0.00560550 0.00185254) // 343
    (0.01301539 -0.00628528 0.00038325) // 344
    (0.01135897 -0.00523450 -0.00110417) // 345
    (0.01344082 -0.00678936 0.00234480) // 346
    (0.01197763 -0.00617987 0.00300444) // 347
    (0.01094785 -0.00571518 0.00335555) // 348
    (0.01278805 -0.00677475 0.00446188) // 349
    (0.01086015 -0.00581017 0.00447600) // 350
    (0.01005705 -0.00518400 0.00278637) // 351
    (0.00985936 -0.00491676 0.00165096) // 352
    (0.00942582 -0.00497818 0.00371669) // 353
    (0.00888067 -0.00443814 0.00190941) // 354
    (0.01047777 -0.00507969 0.00065563) // 355
    (0.00964413 -0.00449367 -0.00029198) // 356
    (0.01154249 -0.00480193 0.00048053) // 357
    (0.01251531 -0.00529115 0.00094305) // 358
    (0.01283422 -0.00558830 0.00204289) // 359
    (0.01146536 -0.00497952 0.00194397) // 360
    (0.01334479 -0.00555820 0.00048849) // 361
    (0.01163215 -0.00459584 -0.00102952) // 362
    (0.01379917 -0.00603919 0.00245312) // 363
    (0.01230083 -0.00550853 0.00309588) // 364
    (0.01124695 -0.00510146 0.00344699) // 365
    (0.01314842 -0.00606297 0.00458035) // 366
    (0.01116217 -0.00520027 0.00457628) // 367
    (0.01032815 -0.00462032 0.00287780) // 368
    (0.01011600 -0.00436441 0.00174240) // 369
    (0.00968820 -0.00445057 0.00381666) // 370
    (0.00910106 -0.00393580 0.00200917) // 371
    (0.01074246 -0.00449292 0.00074707) // 372
    (0.00986902 -0.00394763 -0.00021020) // 373
    (0.01179021 -0.00415675 0.00057197) // 374
    (0.01278858 -0.00459146 0.00103449) // 375
    (0.01312342 -0.00487053 0.00213433) // 376
    (0.01172301 -0.00433833 0.00203541) // 377
    (0.01363309 -0.00481376 0.00059369) // 378
    (0.01186942 -0.00394309 -0.00095431) // 379
    (0.01411583 -0.00527018 0.00256089) // 380
    (0.01258644 -0.00482036 0.00318732) // 381
    (0.01151167 -0.00447215 0.00353842) // 382
    (0.01346869 -0.00533172 0.00469751) // 383
    (0.01143001 -0.00457481 0.00467659) // 384
    (0.01056770 -0.00404252 0.00296924) // 385
    (0.01034172 -0.00379872 0.00183383) // 386
    (0.00992111 -0.00390917 0.00391626) // 387
    (0.00929237 -0.00342237 0.00210847) // 388
    (0.01097433 -0.00389242 0.00083850) // 389
    (0.01006325 -0.00339062 -0.00012827) // 390
    (0.01200189 -0.00349886 0.00066341) // 391
    (0.01302276 -0.00387774 0.00112593) // 392
    (0.01337252 -0.00413788 0.00222577) // 393
    (0.01194483 -0.00368388 0.00212684) // 394
    (0.01387937 -0.00405430 0.00069885) // 395
    (0.01207006 -0.00327828 -0.00087854) // 396
    (0.01438982 -0.00448462 0.00266811) // 397
    (0.01283358 -0.00411746 0.00327875) // 398
    (0.01174122 -0.00382918 0.00362986) // 399
    (0.01374778 -0.00458328 0.00481336) // 400
    (0.01166288 -0.00393568 0.00477692) // 401
    (0.01077494 -0.00345237 0.00306068) // 402
    (0.01053584 -0.00322143 0.00192527) // 403
    (0.01012381 -0.00335562 0.00401550) // 404
    (0.00945404 -0.00289957 0.00220729) // 405
    (0.01117266 -0.00328002 0.00092994) // 406
    (0.01022632 -0.00282434 -0.00004621) // 407
    (0.01217690 -0.00283028 0.00075484) // 408
    (0.01321715 -0.00315217 0.00121736) // 409
    (0.01358075 -0.00339259 0.00231720) // 410
    (0.01213015 -0.00301817 0.00221828) // 411
    (0.01408285 -0.00328224 0.00080396) // 412
    (0.01223347 -0.00260346 -0.00080220) // 413
    (0.01462027 -0.00368487 0.00277477) // 414
    (0.01304151 -0.00340198 0.00337019) // 415
    (0.01193488 -0.00317450 0.00372130) // 416
    (0.01398476 -0.00382000 0.00492789) // 417
    (0.01186009 -0.00328485 0.00487728) // 418
    (0.01094926 -0.00285166 0.00315211) // 419
    (0.01069776 -0.00263429 0.00201670) // 420
    (0.01029568 -0.00279160 0.00411437) // 421
    (0.00958561 -0.00236915 0.00230564) // 422
    (0.01133684 -0.00265760 0.00102137) // 423
    (0.01035779 -0.00225053 0.00003599) // 424
    (0.01231470 -0.00215305 0.00084628) // 425
    (0.01337115 -0.00241696 0.00130880) // 426
    (0.01374747 -0.00263692 0.00240864) // 427
    (0.01227841 -0.00234324 0.00230972) // 428
    (0.01424289 -0.00250000 0.00090903) // 429
    (0.01235916 -0.00192071 -0.00072530) // 430
    (0.01480645 -0.00287335 0.00288087) // 431
    (0.01320957 -0.00267609 0.00346163) // 432
    (0.01209207 -0.00251012 0.00381273) // 433
    (0.01417883 -0.00304428 0.00504111) // 434
    (0.01202107 -0.00262430 0.00497766) // 435
    (0.01109011 -0.00224224 0.00324355) // 436
    (0.01082699 -0.00203909 0.00210814) // 437
    (0.01043618 -0.00221884 0.00421286) // 438
    (0.00968671 -0.00183288 0.00240351) // 439
    (0.01146638 -0.00202706 0.00111281) // 440
    (0.01045735 -0.00167092 0.00011833) // 441
    (0.01241486 -0.00146924 0.00093772) // 442
    (0.01348428 -0.00167437 0.00140023) // 443
    (0.01387218 -0.00187320 0.00250007) // 444
    (0.01238913 -0.00166114 0.00240115) // 445
    (0.01435897 -0.00171006 0.00101406) // 446
    (0.01244676 -0.00123214 -0.00064783) // 447
    (0.01494777 -0.00205249 0.00298642) // 448
    (0.01333727 -0.00194203 0.00355306) // 449
    (0.01221230 -0.00183807 0.00390417) // 450
    (0.01432932 -0.00225855 0.00515302) // 451
    (0.01214533 -0.00195603 0.00507806) // 452
    (0.01119707 -0.00162596 0.00333498) // 453
    (0.01092313 -0.00143767 0.00219958) // 454
    (0.01054486 -0.00163906 0.00431099) // 455
    (0.00975711 -0.00129255 0.00250091) // 456
    (0.01156087 -0.00139032 0.00120425) // 457
    (0.01052474 -0.00108729 0.00020081) // 458
    (0.01247708 -0.00078094 0.00102915) // 459
    (0.01355620 -0.00092666 0.00149167) // 460
    (0.01395450 -0.00110375 0.00259151) // 461
    (0.01246200 -0.00097397 0.00249259) // 462
    (0.01443075 -0.00091492 0.00111905) // 463
    (0.01249602 -0.00053988 -0.00056979) // 464
    (0.01504375 -0.00122476 0.00309142) // 465
    (0.01342421 -0.00120204 0.00364450) // 466
    (0.01229521 -0.00116040 0.00399561) // 467
    (0.01443572 -0.00146531 0.00526361) // 468
    (0.01223254 -0.00128210 0.00517849) // 469
    (0.01126981 -0.00100472 0.00342642) // 470
    (0.01098588 -0.00083186 0.00229101) // 471
    (0.01062139 -0.00105405 0.00440876) // 472
    (0.00979666 -0.00074995 0.00259784) // 473
    (0.01162004 -0.00074933 0.00129568) // 474
    (0.01055985 -0.00050140 0.00028343) // 475
    (0.01250117 -0.00009026 0.00112059) // 476
    (0.01358669 -0.00017612 0.00158311) // 477
    (0.01399417 -0.00033092 0.00268295) // 478
    (0.01249678 -0.00028383 0.00258403) // 479
    (0.01445799 -0.00011709 0.00122399) // 480
    (0.01250681 0.00015395 -0.00049119) // 481
    (0.01509408 -0.00039265 0.00319586) // 482
    (0.01347012 -0.00045837 0.00373593) // 483
    (0.01234055 -0.00047918 0.00408704) // 484
    (0.01449763 -0.00066704 0.00537290) // 485
    (0.01228243 -0.00060454 0.00527894) // 486
    (0.01130811 -0.00038041 0.00351786) // 487
    (0.01101506 -0.00022350 0.00238245) // 488
    (0.01066551 -0.00046556 0.00450615) // 489
    (0.00980531 -0.00020688 0.00269430) // 490
    (0.01164369 -0.00010605 0.00138712) // 491
    (0.01056263 0.00008499 0.00036618) // 492
    (0.01248706 0.00060070 0.00121202) // 493
    (0.01357566 0.00057496 0.00167454) // 494
    (0.01399107 0.00044291 0.00277438) // 495
    (0.01249337 0.00040719 0.00267546) // 496
    (0.01444063 0.00068092 0.00132889) // 497
    (0.01247910 0.00084720 -0.00041203) // 498
    (0.01509854 0.00044133 0.00329975) // 499
    (0.01347487 0.00028670 0.00382737) // 500
    (0.01234817 0.00020350 0.00417848) // 501
    (0.01451484 0.00013371 0.00548087) // 502
    (0.01229488 0.00007458 0.00537942) // 503
    (0.01131186 0.00024507 0.00360929) // 504
    (0.01101058 0.00038555 0.00247389) // 505
    (0.01067707 0.00012459 0.00460318) // 506
    (0.00978315 0.00033485 0.00279029) // 507
    (0.01163176 0.00053755 0.00147856) // 508
    (0.01053312 0.00067010 0.00044908) // 509
    (0.01243478 0.00128983 0.00130346) // 510
    (0.01352315 0.00132428 0.00176598) // 511
    (0.01394522 0.00121539 0.00286582) // 512
    (0.01245177 0.00109696 0.00276690) // 513
    (0.01437873 0.00147657 0.00143375) // 514
    (0.01241301 0.00153774 -0.00033230) // 515
    (0.01505710 0.00127465 0.00340308) // 516
    (0.01343844 0.00103089 0.00391881) // 517
    (0.01231806 0.00088556 0.00426991) // 518
    (0.01448724 0.00093442 0.00558753) // 519
    (0.01226987 0.00075319 0.00547991) // 520
    (0.01128103 0.00086979 0.00370073) // 521
    (0.01097245 0.00099341 0.00256532) // 522
    (0.01065602 0.00071461 0.00469983) // 523
    (0.00973034 0.00087347 0.00288580) // 524
    (0.01158428 0.00117950 0.00156999) // 525
    (0.01047150 0.00125217 0.00053211) // 526
    (0.01234451 0.00197501 0.00139490) // 527
    (0.01342930 0.00206956 0.00185742) // 528
    (0.01385675 0.00198415 0.00295726) // 529
    (0.01237213 0.00178338 0.00285833) // 530
    (0.01427250 0.00226737 0.00153856) // 531
    (0.01230875 0.00222346 -0.00025201) // 532
    (0.01496983 0.00210480 0.00350585) // 533
    (0.01336094 0.00177193 0.00401024) // 534
    (0.01225030 0.00156491 0.00436135) // 535
    (0.01441489 0.00173255 0.00569287) // 536
    (0.01220750 0.00142925 0.00558044) // 537
    (0.01121573 0.00149186 0.00379217) // 538
    (0.01090079 0.00159824 0.00265676) // 539
    (0.01060241 0.00130271 0.00479612) // 540
    (0.00964717 0.00140720 0.00298084) // 541
    (0.01150140 0.00181786 0.00166143) // 542
    (0.01037799 0.00182946 0.00061528) // 543
    (0.01221650 0.00265416 0.00148633) // 544
    (0.01329442 0.00280851 0.00194885) // 545
    (0.01372593 0.00274686 0.00304869) // 546
    (0.01225467 0.00246434 0.00294977) // 547
    (0.01412231 0.00305081 0.00164334) // 548
    (0.01216667 0.00290223 -0.00017115) // 549
    (0.01483695 0.00292927 0.00360808) // 550
    (0.01324260 0.00250756 0.00410168) // 551
    (0.01214510 0.00223948 0.00445279) // 552
    (0.01429799 0.00252557 0.00579690) // 553
    (0.01210797 0.00210069 0.00568098) // 554
    (0.01111615 0.00210937 0.00388360) // 555
    (0.01079581 0.00219818 0.00274820) // 556
    (0.01051639 0.00188709 0.00489204) // 557
    (0.00953403 0.00193429 0.00307540) // 558
    (0.01138337 0.00245066 0.00175286) // 559
    (0.01025295 0.00240023 0.00069860) // 560
    (0.01205116 0.00332520 0.00157777) // 561
    (0.01311890 0.00353887 0.00204029) // 562
    (0.01355316 0.00350116 0.00314013) // 563
    (0.01209977 0.00313778 0.00304121) // 564
    (0.01392865 0.00382442 0.00174807) // 565
    (0.01198721 0.00357199 -0.00008973) // 566
    (0.01465882 0.00374556 0.00370974) // 567
    (0.01308380 0.00323552 0.00419312) // 568
    (0.01200279 0.00290720 0.00454422) // 569
    (0.01413690 0.00331095 0.00589962) // 570
    (0.01197160 0.00276547 0.00578155) // 571
    (0.01098260 0.00272043 0.00397504) // 572
    (0.01065784 0.00279140 0.00283963) // 573
    (0.01039820 0.00246596 0.00498760) // 574
    (0.00939140 0.00245301 0.00316950) // 575
    (0.01123055 0.00307596 0.00184430) // 576
    (0.01009680 0.00296278 0.00078204) // 577
    (0.01184900 0.00398607 0.00166921) // 578
    (0.01290330 0.00425843 0.00213172) // 579
    (0.01333897 0.00424477 0.00323156) // 580
    (0.01190788 0.00380163 0.00313264) // 581
    (0.01369216 0.00458576 0.00185276) // 582
    (0.01177094 0.00423068 -0.00000774) // 583
    (0.01443593 0.00455120 0.00381085) // 584
    (0.01288501 0.00395360 0.00428455) // 585
    (0.01182379 0.00356604 0.00463566) // 586
    (0.01393209 0.00408620 0.00600103) // 587
    (0.01179883 0.00342159 0.00588215) // 588
    (0.01081548 0.00332318 0.00406647) // 589
    (0.01048730 0.00337610 0.00293107) // 590
    (0.01024819 0.00303756 0.00508278) // 591
    (0.00921988 0.00296169 0.00326312) // 592
    (0.01104341 0.00369187 0.00193574) // 593
    (0.00991008 0.00351543 0.00086563) // 594
    (0.01161062 0.00463477 0.00176064) // 595
    (0.01264826 0.00496497 0.00222316) // 596
    (0.01308402 0.00497540 0.00332300) // 597
    (0.01167960 0.00445386 0.00322408) // 598
    (0.01341361 0.00533245 0.00195740) // 599
    (0.01151855 0.00487627 0.00007482) // 600
    (0.01416891 0.00534374 0.00391141) // 601
    (0.01264684 0.00465959 0.00437599) // 602
    (0.01160867 0.00421398 0.00472710) // 603
    (0.01368420 0.00484886 0.00610113) // 604
    (0.01159019 0.00406705 0.00598277) // 605
    (0.01061531 0.00391578 0.00415791) // 606
    (0.01028471 0.00395048 0.00302250) // 607
    (0.01006680 0.00360013 0.00517760) // 608
    (0.00902015 0.00345868 0.00335626) // 609
    (0.01082252 0.00429650 0.00202717) // 610
    (0.00969339 0.00405654 0.00094936) // 611
    (0.01133676 0.00526930 0.00185208) // 612
    (0.01235456 0.00565633 0.00231460) // 613
    (0.01278908 0.00569083 0.00341444) // 614
    (0.01141563 0.00509247 0.00331552) // 615
    (0.01309392 0.00606213 0.00206200) // 616