/*--------------------------------*- C++ -*----------------------------------*\
| =========                 |                                                 |
| \\      /  F ield         | OpenFOAM: The Open Source CFD Toolbox           |
|  \\    /   O peration     | Version:  v2012                                 |
|   \\  /    A nd           | Website:  www.openfoam.com                      |
|    \\/     M anipulation  |                                                 |
\*---------------------------------------------------------------------------*/
FoamFile
{
    version     2.0;
    format      ascii;
    class       polyBoundaryMesh;
    location    "constant/polyMesh";
    object      boundary;
}
// * * * * * * * * * * * * * * * * * * * * * * * * * * * * * * * * * * * * * //

3
(
    inlet
    {
        type            patch;
        nFaces          1284;
        startFace       355168;
    }
    wall
    {
        type            patch;
        nFaces          13652;
        startFace       356452;
    }
    outlet
    {
        type            patch;
        nFaces          1284;
        startFace       370104;
    }
)

// ************************************************************************* //
