/*--------------------------------*- C++ -*----------------------------------*\
| =========                 |                                                 |
| \\      /  F ield         | OpenFOAM: The Open Source CFD Toolbox           |
|  \\    /   O peration     | Version:  v1806                                 |
|   \\  /    A nd           | Web:      www.OpenFOAM.com                      |
|    \\/     M anipulation  |                                                 |
\*---------------------------------------------------------------------------*/
FoamFile
{
    version     2.0;
    format      ascii;
    class       dictionary;
    object      blockMeshDict;
}
// * * * * * * * * * * * * * * * * * * * * * * * * * * * * * * * * * * * * * //

scale   1;

// the updated blockMesh (openfoam.com) fails on some meshes with default options;
// it reports report inconsistent number of faces although the mesh is still OK.
// this happens where two 'wedge' blocks with different numbers of cells join in the same
// point/edge.
mergeType points;
checkFaceCorrespondence false;



vertices
(
    
    (0.00000000 0.00000000 0.50000000) // 0
    (0.49993706 0.00000000 -0.00793298) // 1
    (0.24996853 0.00000000 -0.00146649) // 2
    (0.00000000 0.00000000 0.25250000) // 3
    (-0.00873732 0.13744320 0.53015075) // 4
    (0.49020330 0.16899204 0.02221777) // 5
    (0.24073299 0.15321762 0.02868426) // 6
    (-0.00873732 0.13744320 0.28265075) // 7
    (-0.01586397 0.00000000 -0.49974827) // 8
    (-0.00793198 0.00000000 -0.24737414) // 9
    (-0.02456966 0.13644209 -0.46959752) // 10
    (-0.01665349 0.13694265 -0.21722338) // 11
    (-0.49943367 0.00000000 0.02379096) // 12
    (-0.24971683 0.00000000 0.01439548) // 13
    (-0.50717554 0.10592612 0.05394171) // 14
    (-0.25795643 0.12168466 0.04454623) // 15
    (-0.02413040 0.27063117 0.56030151) // 16
    (0.47182485 0.33360309 0.05236853) // 17
    (0.22384722 0.30211713 0.05883502) // 18
    (-0.02413040 0.27063117 0.31280151) // 19
    (-0.03986801 0.26863295 -0.43944676) // 20
    (-0.03199921 0.26963206 -0.18707263) // 21
    (-0.51958626 0.20772265 0.08409247) // 22
    (-0.27185833 0.23917691 0.07469699) // 23
    (-0.04617925 0.39956391 0.59045226) // 24
    (0.44481360 0.49370789 0.08251928) // 25
    (0.19931718 0.44663590 0.08898577) // 26
    (-0.04617925 0.39956391 0.34295226) // 27
    (-0.06175940 0.39657654 -0.40929601) // 28
    (-0.05396932 0.39807022 -0.15692187) // 29
    (-0.53667771 0.30551472 0.11424322) // 30
    (-0.29142848 0.35253932 0.10484774) // 31
    (-0.07488386 0.52424142 0.62060302) // 32
    (0.40918936 0.64918217 0.11267003) // 33
    (0.16715275 0.58671180 0.11913652) // 34
    (-0.07488386 0.52424142 0.37310302) // 35
    (-0.09024443 0.52027681 -0.37914526) // 36
    (-0.08256415 0.52225911 -0.12677112) // 37
    (-0.55846965 0.39942647 0.14439397) // 38
    (-0.31667675 0.46183395 0.13499849) // 39
    (-0.11024424 0.64466370 0.65075377) // 40
    (0.36497968 0.79990317 0.14282079) // 41
    (0.12736772 0.72228344 0.14928728) // 42
    (-0.11024424 0.64466370 0.40325377) // 43
    (-0.12532401 0.63973765 -0.34899450) // 44
    (-0.11778412 0.64220068 -0.09662037) // 45
    (-0.58498965 0.48958054 0.17454473) // 46
    (-0.34761694 0.56712212 0.16514925) // 47
    (-0.15226038 0.76083075 0.68090452) // 48
    (0.31221986 0.94575012 0.17297154) // 49
    (0.07997974 0.85329044 0.17943803) // 50
    (-0.15226038 0.76083075 0.43340452) // 51
    (-0.16699923 0.75496291 -0.31884375) // 52
    (-0.15962981 0.75789683 -0.06646961) // 53
    (-0.61627293 0.57609759 0.20469548) // 54
    (-0.38426666 0.66846417 0.19530000) // 55
    (-0.20093229 0.87274258 0.71105528) // 56
    (0.25095272 1.08660469 0.20312229) // 57
    (0.02501022 0.97967363 0.20958879) // 58
    (-0.20093229 0.87274258 0.46355528) // 59
    (-0.21527147 0.86595632 -0.28869299) // 60
    (-0.20810188 0.86934945 -0.03631886) // 61
    (-0.65236229 0.65909581 0.23484623) // 62
    (-0.42664729 0.76591919 0.22545076) // 63
    (-0.25625996 0.98039917 0.74120603) // 64
    (0.18122847 1.22235151 0.23327305) // 65
    (-0.03751575 1.10137534 0.23973954) // 66
    (-0.25625996 0.98039917 0.49370603) // 67
    (-0.27014231 0.97272156 -0.25854224) // 68
    (-0.26320114 0.97656036 -0.00616811) // 69
    (-0.69330789 0.73869046 0.26499699) // 70
    (-0.47478392 0.85954481 0.25560151) // 71
    (-0.31824340 1.08380054 0.77135678) // 72
    (0.10310450 1.35287862 0.26342380) // 73
    (-0.10756945 1.21833958 0.26989029) // 74
    (-0.31824340 1.08380054 0.52385678) // 75
    (-0.33161358 1.07526217 -0.22839149) // 76
    (-0.32492849 1.07953135 0.02398265) // 77
    (-0.73916704 0.81499340 0.29514774) // 78
    (-0.52870522 0.94939697 0.28575226) // 79
    (-0.38688261 1.18294667 0.80150754) // 80
    (0.01664514 1.47807786 0.29357456) // 81
    (-0.18511873 1.33051227 0.30004105) // 82
    (-0.38688261 1.18294667 0.55400754) // 83
    (-0.39968732 1.17358159 -0.19824073) // 84
    (-0.39328497 1.17826413 0.05413340) // 85
    (-0.79000404 0.88811265 0.32529850) // 86
    (-0.58844333 1.03552966 0.31590302) // 87
    (-0.46217758 1.27783758 0.83165829) // 88
    (-0.07807856 1.59784540 0.32372531) // 89
    (-0.27012807 1.43784149 0.33019180) // 90
    (-0.46217758 1.27783758 0.58415829) // 91
    (-0.47436578 1.26768311 -0.16808998) // 92
    (-0.46827168 1.27276034 0.08428416) // 93
    (-0.84588985 0.95815197 0.35544925) // 94
    (-0.65403371 1.11799477 0.34605377) // 95
    (-0.54412832 1.36847325 0.86180905) // 96
    (-0.18098915 1.71208207 0.35387606) // 97
    (-0.36255874 1.54027766 0.36034255) // 98
    (-0.54412832 1.36847325 0.61430905) // 99
    (-0.55565142 1.35756988 -0.13793923) // 100
    (-0.54988987 1.36302157 0.11443491) // 101
    (-0.90690183 1.02521042 0.38560000) // 102
    (-0.72551507 1.19684184 0.37620452) // 103
    (-0.63273482 1.45485370 0.89195980) // 104
    (-0.29200310 1.82069378 0.38402682) // 105
    (-0.46236896 1.63777374 0.39049331) // 106
    (-0.63273482 1.45485370 0.64445980) // 107
    (-0.64354689 1.44324489 -0.10778847) // 108
    (-0.63814085 1.44904930 0.14458566) // 109
    (-0.97312345 1.08938199 0.41575076) // 110
    (-0.80292913 1.27211785 0.40635528) // 111
    (-0.72799708 1.53697892 0.92211055) // 112
    (-0.41103106 1.92359192 0.41417757) // 113
    (-0.56951407 1.73028542 0.42064406) // 114
    (-0.72799708 1.53697892 0.67461055) // 115
    (-0.73805503 1.52471094 -0.07763772) // 116
    (-0.73302606 1.53084493 0.17473642) // 117
    (-1.04464395 1.15075521 0.44590151) // 118
    (-0.88632052 1.34386706 0.43650603) // 119
    (-0.82991512 1.61484891 0.95226131) // 120
    (-0.53797831 2.02069367 0.44432832) // 121
    (-0.68394671 1.81777129 0.45079482) // 122
    (-0.82991512 1.61484891 0.70476131) // 123
    (-0.83917883 1.60197067 -0.04748696) // 124
    (-0.83454698 1.60840979 0.20488717) // 125
    (-1.12155797 1.20941280 0.47605226) // 126
    (-0.97573654 1.41213085 0.46665679) // 127
    (-0.93829173 1.68830704 0.98241206) // 128
    (-0.67254789 2.11176575 0.47447908) // 129
    (-0.80541981 1.90003640 0.48094557) // 130
    (-0.93829173 1.68830704 0.73491206) // 131
    (-0.94672430 1.67486988 -0.01733621) // 132
    (-0.94250802 1.68158846 0.23503792) // 133
    (-1.20376799 1.26527472 0.50620302) // 134
    (-1.07102986 1.47679088 0.49680754) // 135
    (-1.04980583 1.75471532 1.01256281) // 136
    (-0.81131428 2.19409995 0.50462983) // 137
    (-0.93056005 1.97440763 0.51109632) // 138
    (-1.04980583 1.75471532 0.76506281) // 139
    (-1.05737362 1.74077280 0.01281454) // 140
    (-1.05358972 1.74774406 0.26518868) // 141
    (-1.28805723 1.31577312 0.53635377) // 142
    (-1.16893153 1.53524422 0.52695829) // 143
    (-1.16326942 1.81313011 1.04271357) // 144
    (-0.95298087 2.26668914 0.53478059) // 145
    (-1.05812514 2.03990963 0.54124708) // 146
    (-1.16326942 1.81313011 0.79521357) // 147
    (-1.16994228 1.79873781 0.04296530) // 148
    (-1.16660585 1.80593396 0.29533943) // 149
    (-1.37334623 1.36002778 0.56650453) // 150
    (-1.26830783 1.58657895 0.55710905) // 151
    (-1.27868252 1.86355142 1.07286432) // 152
    (-1.09743523 2.32947683 0.56493134) // 153
    (-1.18805887 2.09651412 0.57139783) // 154
    (-1.27868252 1.86355142 0.82536432) // 155
    (-1.28443384 1.84876671 0.07311605) // 156
    (-1.28155818 1.85615906 0.32549019) // 157
    (-1.45974730 1.39809516 0.59665528) // 158
    (-1.36921491 1.63082329 0.58725980) // 159
    (-1.39604511 1.90597924 1.10301508) // 160
    (-1.24456159 2.38241372 0.59508209) // 161
    (-1.32030335 2.14419648 0.60154858) // 162
    (-1.39604511 1.90597924 0.85551508) // 163
    (-1.40085198 1.89086106 0.10326680) // 164
    (-1.39844855 1.89842015 0.35564094) // 165
    (-1.54737610 1.43002450 0.62680603) // 166
    (-1.47171061 1.66800187 0.61741055) // 167
    (-1.51535721 1.94041358 1.13316583) // 168
    (-1.39424132 2.42545792 0.62523285) // 169
    (-1.45479927 2.18293575 0.63169934) // 170
    (-1.51535721 1.94041358 0.88566583) // 171
    (-1.51920045 1.92502219 0.13341756) // 172
    (-1.51727883 1.93271789 0.38579169) // 173
    (-1.63635115 1.45585764 0.65695679) // 174
    (-1.57585418 1.69813561 0.64756131) // 175
    (-1.63661881 1.96685444 1.16331658) // 176
    (-1.54635335 2.45857510 0.65538360) // 177
    (-1.59148608 2.21271477 0.66185009) // 178
    (-1.63661881 1.96685444 0.91581658) // 179
    (-1.63948311 1.95125119 0.16356831) // 180
    (-1.63805096 1.95905281 0.41594245) // 181
    (-1.72679339 1.47562889 0.68710754) // 182
    (-1.68170610 1.72124166 0.67771206) // 183
    (-1.75982992 1.98530181 1.19346734) // 184
    (-1.70077471 2.48173866 0.68553435) // 185
    (-1.73030231 2.23352023 0.69200085) // 186
    (-1.75982992 1.98530181 0.94596734) // 187
    (-1.76170385 1.96954891 0.19371907) // 188
    (-1.76076688 1.97742536 0.44609320) // 189
    (-1.81882566 1.48936482 0.71725829) // 190
    (-1.78932779 1.73733331 0.70786282) // 191
    (-1.88499052 1.99575569 1.22361809) // 192
    (-1.85738098 2.49492979 0.71568511) // 193
    (-1.87118575 2.24534274 0.72215160) // 194
    (-1.88499052 1.99575569 0.97611809) // 195
    (-1.88586663 1.97991594 0.22386982) // 196
    (-1.88542857 1.98783581 0.47624395) // 197
    (-1.91257226 1.49708422 0.74740905) // 198
    (-1.89878139 1.74641996 0.73801357) // 199
    (-2.01210063 1.99821609 1.25376884) // 200
    (-2.01604682 2.49813758 0.74583586) // 201
    (-2.01407372 2.24817684 0.75230235) // 202
    (-2.01210063 1.99821609 1.00626884) // 203
    (-2.01197541 1.98235262 0.25402057) // 204
    (-2.01203802 1.99028436 0.50639471) // 205
    (-2.00815842 1.49879798 0.77755980) // 206
    (-2.01012952 1.74850704 0.76816432) // 207
    (-2.14116024 1.99268301 1.28391960) // 208
    (-2.17664642 2.49135906 0.77598662) // 209
    (-2.15890333 2.24202103 0.78245311) // 210
    (-2.14116024 1.99268301 1.03641960) // 211
    (-2.14003419 1.97685906 0.28417133) // 212
    (-2.14059721 1.98477104 0.53654546) // 213
    (-2.10570979 1.49450909 0.80771056) // 214
    (-2.12343501 1.74359605 0.79831508) // 215
    (-2.27043818 1.97935012 1.31407035) // 216
    (-2.33732290 2.47479285 0.80613737) // 217
    (-2.30388054 2.22707148 0.81260386) // 218
    (-2.27043818 1.97935012 1.06657035) // 219
    (-2.26831580 1.96362876 0.31432208) // 220
    (-2.26937699 1.97148944 0.56669622) // 221
    (-2.20362080 1.48440625 0.83786131) // 222
    (-2.23702949 1.73187818 0.82846583) // 223
    (-2.39655137 1.95859588 1.34422111) // 224
    (-2.49456800 2.44883032 0.83628812) // 225
    (-2.44555969 2.20371310 0.84275461) // 226
    (-2.39655137 1.95859588 1.09672111) // 227
    (-2.39344111 1.94303980 0.34447283) // 228
    (-2.39499624 1.95081784 0.59684697) // 229
    (-2.29863343 1.46885507 0.86801206) // 230
    (-2.34759240 1.71372547 0.85861658) // 231
    (-2.51941154 1.93043019 1.37437186) // 232
    (-2.64816937 2.41350212 0.86643888) // 233
    (-2.58379046 2.17196615 0.87290537) // 234
    (-2.51941154 1.93043019 1.12687186) // 235
    (-2.51532581 1.91510138 0.37462359) // 236
    (-2.51736868 1.92276578 0.62699772) // 237
    (-2.39078336 1.44784467 0.89816282) // 238
    (-2.45509745 1.68913743 0.88876734) // 239
    (-2.63901870 1.89485303 1.40452261) // 240
    (-2.79800445 2.36883678 0.89658963) // 241
    (-2.71851157 2.13184490 0.90305612) // 242
    (-2.63901870 1.89485303 1.15702261) // 243
    (-2.63397377 1.87981261 0.40477434) // 244
    (-2.63649624 1.88733282 0.65714848) // 245
    (-2.48019303 1.42134654 0.92831357) // 246
    (-2.55960586 1.65809978 0.91891809) // 247
    (-2.75537284 1.85186441 1.43467337) // 248
    (-2.94395275 2.31487054 0.92674038) // 249
    (-2.84966279 2.08336747 0.93320688) // 250
    (-2.75537284 1.85186441 1.18717337) // 251
    (-2.74938883 1.83717233 0.43492510) // 252
    (-2.75238083 1.84451837 0.68729923) // 253
    (-2.56698280 1.38932448 0.95846432) // 254
    (-2.66117782 1.62059444 0.94906885) // 255
    (-2.86847396 1.80146432 1.46482412) // 256
    (-3.08589630 2.25164716 0.95689114) // 257
    (-2.97718513 2.02655574 0.96335763) // 258
    (-2.86847396 1.80146432 1.21732412) // 259
    (-2.86157473 1.78717915 0.46507585) // 260
    (-2.86502434 1.79432174 0.71744999) // 261
    (-2.65127054 1.35173477 0.98861508) // 262
    (-2.75987225 1.57659955 0.97921960) // 263
    (-2.97832206 1.74365277 1.49497487) // 264
    (-3.22372012 2.17921776 0.98704189) // 265
    (-3.10102109 1.96143527 0.99350838) // 266
    (-2.97832206 1.74365277 1.24747487) // 267
    (-2.97053510 1.72983146 0.49522660) // 268
    (-2.97442858 1.73674212 0.74760074) // 269
    (-2.73317109 1.30852636 1.01876583) // 270
    (-2.85574657 1.52608957 1.00937035) // 271
    (-3.08491714 1.67842976 1.52512563) // 272
    (-3.35731269 2.09764061 1.01719265) // 273
    (-3.22111492 1.88803519 1.02365914) // 274
    (-3.08491714 1.67842976 1.27762563) // 275
    (-3.07627350 1.66512740 0.52537736) // 276
    (-3.08059532 1.67177858 0.77775149) // 277
    (-2.81279587 1.25964103 1.04891659) // 278
    (-2.94885651 1.46903540 1.03952111) // 279
    (-3.18825921 1.60579529 1.55527638) // 280
    (-3.48656640 2.00698089 1.04734340) // 281
    (-3.33741280 1.80638809 1.05380989) // 282
    (-3.18825921 1.60579529 1.30777638) // 283
    (-3.17879334 1.59306490 0.55552811) // 284
    (-3.18352628 1.59943010 0.80790225) // 285
    (-2.89025239 1.20501365 1.07906734) // 286
    (-3.03925580 1.40540447 1.06967186) // 287
    (-3.28834825 1.52574936 1.58542714) // 288
    (-3.61137795 1.90731047 1.07749415) // 289
    (-3.44986310 1.71652991 1.08396064) // 290
    (-3.28834825 1.52574936 1.33792714) // 291
    (-3.27809790 1.51364169 0.58567886) // 292
    (-3.28322308 1.51969552 0.83805300) // 293
    (-2.96564383 1.14457244 1.10921809) // 294
    (-3.12699604 1.33516090 1.09982261) // 295
    (-3.38495685 1.43849939 1.61557789) // 296
    (-3.73142135 1.79891500 1.10764491) // 297
    (-3.55818910 1.61870720 1.11411140) // 298
    (-3.38495685 1.43849939 1.36807789) // 299
    (-3.37396286 1.42706270 0.61582962) // 300
    (-3.37945986 1.43278105 0.86820375) // 301
    (-3.03884121 1.07844668 1.13936885) // 302
    (-3.21189903 1.25847303 1.12997337) // 303
    (-3.47526696 1.34661554 1.64572864) // 304
    (-3.84378516 1.68444894 1.13779566) // 305
    (-3.65952606 1.51553224 1.14426215) // 306
    (-3.47526696 1.34661554 1.39822864) // 307
    (-3.46357316 1.33589544 0.64598037) // 308
    (-3.46942006 1.34125549 0.89835451) // 309
    (-3.10711982 1.00912232 1.16951960) // 310
    (-3.29119339 1.17786893 1.16012412) // 311
    (-3.55843747 1.25086494 1.67587940) // 312
    (-3.94754035 1.56476941 1.16794642) // 313
    (-3.75298891 1.40781718 1.17441291) // 314
    (-3.55843747 1.25086494 1.42837940) // 315
    (-3.54609049 1.24090415 0.67613113) // 316
    (-3.55226398 1.24588454 0.92850526) // 317
    (-3.16972639 0.93727655 1.19967035) // 318
    (-3.36408193 1.09407074 1.19027488) // 319
    (-3.63446840 1.15124759 1.70603015) // 320
    (-4.04260488 1.43997181 1.19809717) // 321
    (-3.83853664 1.29560970 1.20456366) // 322
    (-3.63446840 1.15124759 1.45853015) // 323
    (-3.62151744 1.14208581 0.70628188) // 324
    (-3.62799292 1.14666670 0.95865602) // 325
    (-3.22674288 0.86281408 1.22982111) // 326
    (-3.43060564 1.00703083 1.22042563) // 327
    (-3.70335973 1.04776347 1.73618090) // 328
    (-4.12890286 1.31015652 1.22824792) // 329
    (-3.91613130 1.17896000 1.23471441) // 330
    (-3.70335973 1.04776347 1.48868090) // 331
    (-3.68985643 1.03943724 0.73643263) // 332
    (-3.69660808 1.04360035 0.98880677) // 333
    (-3.27824509 0.78563463 1.25997186) // 334
    (-3.49080241 0.91669905 1.25057638) // 335
    (-3.76511147 0.94041260 1.76633166) // 336
    (-4.20636491 1.17542850 1.25839868) // 337
    (-3.98573819 1.05792055 1.26486517) // 338
    (-3.76511147 0.94041260 1.51883166) // 339
    (-3.75110965 0.93295510 0.76658339) // 340
    (-3.75811056 0.93668385 1.01895752) // 341
    (-3.32430234 0.70563335 1.29012262) // 342
    (-3.54470691 0.82302298 1.28072714) // 343
    (-3.81972362 0.82919498 1.79648241) // 344
    (-4.27492841 1.03589687 1.28854943) // 345
    (-4.04732601 0.93254593 1.29501592) // 346
    (-3.81972362 0.82919498 1.54898241) // 347
    (-3.80527910 0.82263593 0.79673414) // 348
    (-3.81250136 0.82591545 1.04910828) // 349
    (-3.36497719 0.62270121 1.32027337) // 350
    (-3.59235041 0.72594810 1.31087789) // 351
    (-3.86719618 0.71411060 1.82663317) // 352
    (-4.33453773 0.89167452 1.31870018) // 353
    (-4.10086695 0.80289256 1.32516667) // 354
    (-3.86719618 0.71411060 1.57913317) // 355
    (-3.85236653 0.70847615 0.82688489) // 356
    (-3.85978136 0.71129338 1.07925903) // 357
    (-3.40032521 0.53672547 1.35042412) // 358
    (-3.63376069 0.62541803 1.34102864) // 359
    (-3.90752915 0.59515946 1.85678392) // 360
    (-4.38514450 0.74287759 1.34885094) // 361
    (-4.14633682 0.66901853 1.35531743) // 362
    (-3.90752915 0.59515946 1.60928392) // 363
    (-3.89237349 0.59047208 0.85703565) // 364
    (-3.89995132 0.59281577 1.10940978) // 365
    (-3.43039472 0.44759007 1.38057488) // 366
    (-3.66896193 0.52137477 1.37117940) // 367
    (-3.94072252 0.47234157 1.88693467) // 368
    (-4.42670776 0.58962506 1.37900169) // 369
    (-4.18371514 0.53098331 1.38546818) // 370
    (-3.94072252 0.47234157 1.63943467) // 371
    (-3.92530127 0.46861994 0.88718640) // 372
    (-3.93301190 0.47048075 1.13956054) // 373
    (-3.45522663 0.35517618 1.41072563) // 374
    (-3.69797458 0.41375887 1.40133015) // 375
    (-3.96677631 0.34565692 1.91708543) // 376
    (-4.45919415 0.43203824 1.40915245) // 377
    (-4.21298523 0.38884758 1.41561894) // 378
    (-3.96677631 0.34565692 1.66958543) // 379
    (-3.95115094 0.34291587 0.91733716) // 380
    (-3.95896362 0.34428640 1.16971129) // 381
    (-3.47485428 0.25936258 1.44087639) // 382
    (-3.72081530 0.30250975 1.43148091) // 383
    (-3.98536392 0.21706758 1.94723618) // 384
    (-4.48225145 0.27220238 1.43930320) // 385
    (-4.23380769 0.24463498 1.44576969) // 386
    (-3.98536392 0.21706758 1.69973618) // 387
    (-3.96959672 0.21531804 0.94748791) // 388
    (-3.97748032 0.21619281 1.19986205) // 389
    (-3.48897671 0.16198828 1.47102714) // 390
    (-3.73717032 0.18952793 1.46163166) // 391
    (-3.99595336 0.08976977 1.97738693) // 392
    (-4.49532984 0.11343828 1.46945395) // 393
    (-4.24564160 0.10160403 1.47592044) // 394
    (-3.99595336 0.08976977 1.72988693) // 395
    (-3.98010718 0.08901872 0.97763866) // 396
    (-3.98803027 0.08939424 1.23001280) // 397
    (-3.49707971 0.06612508 1.50117789) // 398
    (-3.74651654 0.07794743 1.49178241) // 399
    (-3.99853713 -0.03619146 2.00753769) // 400
    (-4.49841190 -0.04408359 1.49960471) // 401
    (-4.24847451 -0.04013752 1.50607120) // 402
    (-3.99853713 -0.03619146 1.76003769) // 403
    (-3.98267514 -0.03594103 1.00778942) // 404
    (-3.99060614 -0.03606624 1.26016355) // 405
    (-3.49916570 -0.02830728 1.53132865) // 406
    (-3.74885141 -0.03224937 1.52193317) // 407
    (-3.99311523 -0.16081611 2.03768844) // 408
    (-4.49149563 -0.20023742 1.52975546) // 409
    (-4.24230543 -0.18052677 1.53622195) // 410
    (-3.99311523 -0.16081611 1.79018844) // 411
    (-3.97730066 -0.15956520 1.03794017) // 412
    (-3.98520794 -0.16019065 1.29031431) // 413
    (-3.49523665 -0.12143449 1.56147940) // 414
    (-3.74417594 -0.14112530 1.55208392) // 415
    (-3.97968766 -0.28410418 2.06783920) // 416
    (-4.47458701 -0.35489753 1.55990621) // 417
    (-4.22713733 -0.31950086 1.56637271) // 418
    (-3.97968766 -0.28410418 1.82033920) // 419
    (-3.96398355 -0.28185777 1.06809092) // 420
    (-3.97183560 -0.28298098 1.32046506) // 421
    (-3.48528663 -0.21338212 1.59163015) // 422
    (-3.73248714 -0.24874315 1.58223467) // 423
    (-3.95825441 -0.40605567 2.09798995) // 424
    (-4.44769990 -0.50793886 1.59005697) // 425
    (-4.20297716 -0.45699726 1.59652346) // 426
    (-3.95825441 -0.40605567 1.85048995) // 427
    (-3.94272337 -0.40282272 1.09824168) // 428
    (-3.95048889 -0.40443920 1.35061581) // 429
    (-3.46930176 -0.30427508 1.62178091) // 430
    (-3.71377809 -0.35516538 1.61238543) // 431
    (-3.92881550 -0.52667059 2.12814070) // 432
    (-4.41085605 -0.65923747 1.62020772) // 433
    (-4.16983578 -0.59295403 1.62667421) // 434
    (-3.92881550 -0.52667059 1.88064070) // 435
    (-3.91351943 -0.52246398 1.12839243) // 436
    (-3.92116746 -0.52456728 1.38076657) // 437
    (-3.44726033 -0.39423719 1.65193166) // 438
    (-3.68803791 -0.46045389 1.64253618) // 439
    (-3.89137092 -0.64594892 2.15829146) // 440
    (-4.36408497 -0.80867105 1.65035848) // 441
    (-4.12772794 -0.72730998 1.65682497) // 442
    (-3.89137092 -0.64594892 1.91079146) // 443
    (-3.87637079 -0.64078543 1.15854319) // 444
    (-3.88387085 -0.64336718 1.41091732) // 445
    (-3.41913285 -0.48339064 1.68208242) // 446
    (-3.65525188 -0.56466978 1.67268694) // 447
    (-3.84592066 -0.76389067 2.18844221) // 448
    (-4.30742385 -0.95611939 1.68050923) // 449
    (-4.07667225 -0.86000503 1.68697572) // 450
    (-3.84592066 -0.76389067 1.94094221) // 451
    (-3.83127628 -0.75779089 1.18869394) // 452
    (-3.83859847 -0.76084078 1.44106808) // 453
    (-3.38488217 -0.57185551 1.71223317) // 454
    (-3.61540142 -0.66787309 1.70283769) // 455
    (-3.79246474 -0.88049585 2.21859296) // 456
    (-4.24091736 -1.10146488 1.71065998) // 457
    (-4.01669105 -0.99098036 1.71712647) // 458
    (-3.79246474 -0.88049585 1.97109296) // 459
    (-3.77823447 -0.87348408 1.21884469) // 460
    (-3.78534960 -0.87698996 1.47121883) // 461
    (-3.34446367 -0.65974932 1.74238392) // 462
    (-3.56846420 -0.77012258 1.73298844) // 463
    (-3.73119857 -0.99540335 2.24874372) // 464
    (-4.16481297 -1.24423184 1.74081074) // 465
    (-3.94800577 -1.11981759 1.74727723) // 466
    (-3.73119857 -0.99540335 2.00124372) // 467
    (-3.71743915 -0.98750754 1.24899545) // 468
    (-3.72431886 -0.99145544 1.50136958) // 469
    (-3.29802078 -0.74682541 1.77253468) // 470
    (-3.51460967 -0.87111438 1.76313920) // 471
    (-3.66397568 -1.10518837 2.27889447) // 472
    (-4.08102334 -1.38088442 1.77096149) // 473
    (-3.87249951 -1.24303639 1.77742798) // 474
    (-3.66397568 -1.10518837 2.03139447) // 475
    (-3.65074195 -1.09644000 1.27914620) // 476
    (-3.65735881 -1.10081418 1.53152034) // 477
    (-3.24734794 -0.82976992 1.80268543) // 478
    (-3.45566181 -0.96747914 1.79328995) // 479
    (-3.59125553 -1.20900193 2.30904523) // 480
    (-3.99007399 -1.51046653 1.80111224) // 481
    (-3.79066476 -1.35973423 1.80757874) // 482
    (-3.59125553 -1.20900193 2.06154523) // 483
    (-3.57860025 -1.19943588 1.30929695) // 484
    (-3.58492789 -1.20421890 1.56167109) // 485
    (-3.19283865 -0.90784087 1.83283618) // 486
    (-3.39204709 -1.05842140 1.82344071) // 487
    (-3.51303814 -1.30684403 2.33919598) // 488
    (-3.89203757 -1.63287546 1.83126300) // 489
    (-3.70253786 -1.46985974 1.83772949) // 490
    (-3.51303814 -1.30684403 2.09169598) // 491
    (-3.50101175 -1.29649842 1.33944771) // 492
    (-3.50702494 -1.30167123 1.59182184) // 493
    (-3.13442032 -0.98114089 1.86298694) // 494
    (-3.32372923 -1.14399246 1.85359146) // 495
    (-3.42932349 -1.39871467 2.36934673) // 496
    (-3.78699310 -1.74801327 1.86141375) // 497
    (-3.60815830 -1.57336397 1.86788024) // 498
    (-3.42932349 -1.39871467 2.12184673) // 499
    (-3.41797394 -1.38763075 1.36959846) // 500
    (-3.42364871 -1.39317271 1.62197260) // 501
    (-3.07201401 -1.04976779 1.89313769) // 502
    (-3.25066875 -1.22424123 1.88374221) // 503
    (-3.34011159 -1.48461386 2.39949749) // 504
    (-3.67502561 -1.85578722 1.89156451) // 505
    (-3.50756860 -1.67020054 1.89803100) // 506
    (-3.34011159 -1.48461386 2.15199749) // 507
    (-3.32948412 -1.47283581 1.39974922) // 508
    (-3.33479785 -1.47872483 1.65212335) // 509
    (-3.00553479 -1.11381423 1.92328845) // 510
    (-3.17282319 -1.29921404 1.91389297) // 511
    (-3.24540243 -1.56454158 2.42964824) // 512
    (-3.55622579 -1.95611010 1.92171526) // 513
    (-3.40081411 -1.76032584 1.92818175) // 514
    (-3.24540243 -1.56454158 2.18214824) // 515
    (-3.23553941 -1.55211636 1.42989997) // 516
    (-3.24047092 -1.55832897 1.68227411) // 517
    (-2.93489204 -1.17336733 1.95343920) // 518
    (-3.09014724 -1.36895446 1.94404372) // 519
    (-3.14519602 -1.63849785 2.45979899) // 520
    (-3.43068969 -2.04890062 1.95186601) // 521
    (-3.28794286 -1.84369923 1.95833250) // 522
    (-3.14519602 -1.63849785 2.21229899) // 523
    (-3.13613676 -1.62547498 1.46005072) // 524
    (-3.14066639 -1.63198641 1.71242486) // 525
    (-2.85998983 -1.22850831 1.98358995) // 526
    (-3.00259293 -1.43350308 1.97419447) // 527
    (-3.03949237 -1.70648265 2.48994975) // 528
    (-3.29851827 -2.13408369 1.98201677) // 529
    (-3.16900532 -1.92028317 1.98848326) // 530
    (-3.03949237 -1.70648265 2.24244975) // 531
    (-3.03127297 -1.69291405 1.49020148) // 532
    (-3.03538267 -1.69969835 1.74257561) // 533
    (-2.78072728 -1.27931217 2.01374071) // 534
    (-2.91010982 -1.49289741 2.00434523) // 535
    (-2.92829145 -1.76849600 2.52010050) // 536
    (-3.15981705 -2.21159076 2.01216752) // 537
    (-3.04405425 -1.99004338 2.01863401) // 538
    (-2.92829145 -1.76849600 2.27260050) // 539
    (-2.92094470 -1.75443575 1.52035223) // 540
    (-2.92461808 -1.76146588 1.77272637) // 541
    (-2.69699898 -1.32584740 2.04389146) // 542
    (-2.81264522 -1.54717170 2.03449598) // 543
    (-2.81159329 -1.82453789 2.55025126) // 544
    (-3.01469565 -2.28136007 2.04231827) // 545
    (-2.91314447 -2.05294898 2.04878477) // 546
    (-2.81159329 -1.82453789 2.30275126) // 547
    (-2.80514846 -1.81004204 1.55050299) // 548
    (-2.80837088 -1.81728997 1.80287712) // 549
    (-2.60869544 -1.36817570 2.07404221) // 550
    (-2.71014437 -1.59635679 2.06464674) // 551
    (-2.69144534 -1.87371017 2.58040201) // 552
    (-2.86531483 -2.34243874 2.07246903) // 553
    (-2.77838008 -2.10807446 2.07893552) // 554
    (-2.69144534 -1.87371017 2.33290201) // 555
    (-2.68592812 -1.85883651 1.58065374) // 556
    (-2.68868673 -1.86627334 1.83302787) // 557
    (-2.51775092 -1.40545358 2.10419297) // 558
    (-2.60459813 -1.63958188 2.09479749) // 559
    (-2.57061208 -1.91480017 2.61055276) // 560
    (-2.71455562 -2.39356664 2.10261978) // 561
    (-2.64258385 -2.15418340 2.10908627) // 562
    (-2.57061208 -1.91480017 2.36305276) // 563
    (-2.56604448 -1.89960799 1.61080449) // 564
    (-2.56832828 -1.90720408 1.86317863) // 565
    (-2.42681349 -1.43651579 2.13434372) // 566
    (-2.49871279 -1.67565798 2.12494824) // 567
    (-2.44910858 -1.94780129 2.64070352) // 568
    (-2.56255235 -2.43469715 2.13277054) // 569
    (-2.50583046 -2.19124922 2.13923703) // 570
    (-2.44910858 -1.94780129 2.39320352) // 571
    (-2.44550879 -1.93235114 1.64095525) // 572
    (-2.44730868 -1.94007622 1.89332938) // 573
    (-2.33577903 -1.46139569 2.16449448) // 574
    (-2.39244380 -1.70459849 2.15509900) // 575
    (-2.32693481 -1.97271352 2.67085427) // 576
    (-2.40942660 -2.46579786 2.16292129) // 577
    (-2.36818071 -2.21925569 2.16938778) // 578
    (-2.32693481 -1.97271352 2.42335427) // 579
    (-2.32431719 -1.95706700 1.67110600) // 580
    (-2.32562600 -1.96489026 1.92348014) // 581
    (-2.24452608 -1.48012567 2.19464523) // 582
    (-2.28573045 -1.72641959 2.18524975) // 583
    (-2.20409079 -1.98953687 2.70100503) // 584
    (-2.25530176 -2.48684412 2.19307204) // 585
    (-2.22969628 -2.23819049 2.19953853) // 586
    (-2.20409079 -1.98953687 2.45350503) // 587
    (-2.20246577 -1.97375635 1.70125675) // 588
    (-2.20327828 -1.98164661 1.95363089) // 589
    (-2.15293138 -1.49273036 2.22479598) // 590
    (-2.17851108 -1.74113361 2.21540050) // 591
    (-2.08057651 -1.99827133 2.73115578) // 592
    (-2.10030253 -2.49781908 2.22322280) // 593
    (-2.09043952 -2.24804520 2.22968929) // 594
    (-2.08057651 -1.99827133 2.48365578) // 595
    (-2.07995057 -1.98241972 1.73140751) // 596
    (-2.08026354 -1.99034552 1.98378164) // 597
    (-2.06087036 -1.49922658 2.25494674) // 598
    (-2.07072344 -1.74874896 2.24555126) // 599
    (-1.95639198 -1.99891691 2.76130653) // 600
    (-1.94455440 -2.49871381 2.25337355) // 601
    (-1.95047319 -2.24881536 2.25984004) // 602
    (-1.95639198 -1.99891691 2.51380653) // 603
    (-1.95676761 -1.98305739 1.76155826) // 604
    (-1.95657979 -1.99098715 2.01393240) // 605
    (-1.96821764 -1.49962326 2.28509749) // 606
    (-1.96230481 -1.74927009 2.27570201) // 607
    (-1.83153719 -1.99147360 2.79145729) // 608
    (-1.78818321 -2.48952732 2.28352430) // 609
    (-1.80986020 -2.24050046 2.28999080) // 610
    (-1.83153719 -1.99147360 2.54395729) // 611