/*--------------------------------*- C++ -*----------------------------------*\
| =========                 |                                                 |
| \\      /  F ield         | OpenFOAM: The Open Source CFD Toolbox           |
|  \\    /   O peration     | Version:  v1806                                 |
|   \\  /    A nd           | Web:      www.OpenFOAM.com                      |
|    \\/     M anipulation  |                                                 |
\*---------------------------------------------------------------------------*/
FoamFile
{
    version     2.0;
    format      ascii;
    class       dictionary;
    object      blockMeshDict;
}
// * * * * * * * * * * * * * * * * * * * * * * * * * * * * * * * * * * * * * //

scale   1;

// the updated blockMesh (openfoam.com) fails on some meshes with default options;
// it reports report inconsistent number of faces although the mesh is still OK.
// this happens where two 'wedge' blocks with different numbers of cells join in the same
// point/edge.
mergeType points;
checkFaceCorrespondence false;



vertices
(
    
    (0.91337745 0.27312079 0.25628746) // 0
    (0.49590763 -0.65114097 0.59438263) // 1
    (0.38824766 -0.29187159 0.59007835) // 2
    (0.59698257 0.17025929 0.42103076) // 3
    (0.80579052 0.09254898 -0.03371455) // 4
    (0.20404997 -0.72503417 0.30142023) // 5
    (0.17335620 -0.35123827 0.29715363) // 6
    (0.47422647 0.05755330 0.12958624) // 7
    (-0.37202104 -0.11974654 0.92174939) // 8
    (-0.04571667 -0.02617437 0.75376173) // 9
    (-0.53602269 -0.02514759 0.62592053) // 10
    (-0.19668013 -0.00129498 0.45940378) // 11
    (0.07298984 0.78765305 0.57326624) // 12
    (0.17678877 0.42752543 0.57952015) // 13
    (0.08920179 0.77022680 0.28048873) // 14
    (0.11593211 0.39639222 0.28668788) // 15
    (0.98405656 0.47036336 0.54355046) // 16
    (0.76684741 -0.51828495 0.88741660) // 17
    (0.58798666 -0.18862853 0.88303885) // 18
    (0.69659123 0.30569562 0.71110577) // 19
    (-0.18895499 -0.17414513 1.22037121) // 20
    (0.11008546 -0.01655862 1.04951615) // 21
    (0.05858362 0.80358295 0.86593978) // 22
    (0.23385476 0.47230542 0.87230043) // 23
    (1.01836244 0.67646765 0.82834431) // 24
    (1.00592855 -0.33282435 1.18051508) // 25
    (0.76486444 -0.04550628 1.17603160) // 26
    (0.77108138 0.45913973 0.99994621) // 27
    (0.00378968 -0.18352998 1.52151081) // 28
    (0.26379500 0.02914091 1.34652946) // 29
    (0.04802337 0.82102462 1.15851957) // 30
    (0.28591185 0.53141821 1.16503385) // 31
    (1.01829625 0.88526060 1.11102544) // 32
    (1.20459508 -0.10298623 1.47366877) // 33
    (0.91249285 0.13225548 1.46905196) // 34
    (0.81934344 0.62637889 1.28773030) // 35
    (0.19578103 -0.14596270 1.82480471) // 36
    (0.40808583 0.11076724 1.64461993) // 37
    (0.04149382 0.84364785 1.45101917) // 38
    (0.33094222 0.60557252 1.45772716) // 39
    (0.98641511 1.09225070 1.39199488) // 40
    (1.35678149 0.16211698 1.76686717) // 41
    (1.02589680 0.33868492 1.76209467) // 42
    (0.84071362 0.80375177 1.57465853) // 43
    (0.37662958 -0.06238078 2.12984404) // 44
    (0.53582085 0.22643604 1.94358311) // 45
    (0.03736531 0.87487668 1.74345379) // 46
    (0.36618872 0.69506477 1.75038798) // 47
    (0.92516288 1.29429725 1.67166038) // 48
    (1.45863963 0.45324629 2.06009964) // 49
    (1.10141473 0.56748114 2.05515442) // 50
    (0.83467635 0.98800662 1.86093479) // 51
    (0.53683188 0.06381280 2.43621297) // 52
    (0.64051086 0.37276439 2.24321109) // 53
    (0.03260587 0.91722123 2.03583891) // 54
    (0.38839785 0.79946861 2.04302406) // 55
    (0.83652166 1.48912858 1.95040800) // 56
    (1.50810542 0.76149041 2.35335609) // 57
    (1.13651578 0.81226945 2.34822616) // 58
    (0.80072390 1.17608853 2.14675212) // 59
    (0.66827879 0.22734226 2.74351786) // 60
    (0.71660247 0.54519537 2.54330705) // 61
    (0.02334435 0.97192998 2.32818919) // 62
    (0.39413525 0.91748923 2.33564271) // 63
    (0.72193446 1.67488404 2.22858407) // 64
    (1.50447503 1.07846206 2.64662748) // 65
    (1.12961805 1.06673170 2.64130537) // 66
    (0.73834776 1.36494269 2.43228367) // 67
    (0.76447147 0.42165262 3.05140557) // 68
    (0.75961627 0.73832698 2.84369441) // 69
    (0.00541264 1.03891642 2.62051777) // 70
    (0.38008685 1.04695888 2.62825051) // 71
    (0.58240011 1.84976733 2.50648619) // 72
    (1.44807473 1.39633165 2.93990602) // 73
    (1.07994937 1.32465907 2.93438816) // 74
    (0.64711206 1.55137691 2.71767824) // 75
    (0.82054136 0.63940957 3.35957261) // 76
    (0.76618268 0.94619803 3.14422145) // 77
    (-0.02522041 1.11686385 2.91283595) // 78
    (0.34330180 1.18492517 2.92085312) // 79
    (0.41864888 2.01182994 2.78436100) // 80
    (1.34004085 1.70778584 3.23318528) // 81
    (0.98745864 1.57997028 3.22747130) // 82
    (0.52676265 1.73199233 3.00305916) // 83
    (0.83316528 0.87288186 3.66776750) // 84
    (0.73402085 1.16251829 3.44476241) // 85
    (-0.07214255 1.20341907 3.20515309) // 86
    (0.28136694 1.32778689 3.21345521) // 87
    (0.23133605 2.15886703 3.06240625) // 88
    (1.18219127 2.00596973 3.52646008) // 89
    (0.85276781 1.82672418 3.52055222) // 90
    (0.37734020 1.90317283 3.28852530) // 91
    (0.80043894 1.11421963 3.97578860) // 92
    (0.66189165 1.38084913 3.74521648) // 93
    (-0.13830255 1.29541387 3.49747670) // 94
    (0.19252090 1.47144625 3.50606053) // 95
    (0.02121895 2.28839685 3.34077528) // 96
    (0.97695918 2.28444295 3.81972643) // 97
    (0.67714986 2.05914121 3.81362890) // 98
    (0.19927974 2.06111816 3.57415333) // 99
    (0.72174358 1.35565489 4.28347953) // 100
    (0.54954206 1.59474718 4.04550545) // 101
    (-0.22589816 1.38908102 3.78981260) // 102
    (0.07572119 1.61146024 3.79867199) // 103
    (-0.21069751 2.39769626 3.61958280) // 104
    (0.72736254 2.53716110 4.11298132) // 105
    (0.46251902 2.27163872 4.10669986) // 106
    (-0.00651101 2.20190630 3.86000061) // 107
    (0.59762138 1.58964910 4.59072334) // 108
    (0.39764844 1.79788271 4.34557088) // 109
    (-0.33632174 1.48025064 4.08216515) // 110
    (-0.06932312 1.74318349 4.09129178) // 111
    (-0.46305076 2.48387092 3.89891073) // 112
    (0.43698938 2.75848269 4.40622261) // 113
    (0.21142345 2.45887964 4.39976402) // 114
    (-0.23859661 2.32157376 4.14610808) // 115
    (0.42966326 1.80900681 4.89743650) // 116
    (0.20776039 1.98414170 4.64537097) // 117
    (-0.47014440 1.56452374 4.37453746) // 118
    (-0.24214344 1.86190017 4.38392145) // 119
    (-0.73404409 2.54394510 4.17881396) // 120
    (0.10998563 2.94319732 4.69944887) // 121
    (-0.07296659 2.61583172 4.69282067) // 122
    (-0.49498145 2.41620560 4.43250321) // 123
    (0.22040797 2.00696816 5.20356303) // 124
    (-0.01775542 2.14771714 4.94487775) // 125
    (-0.62712567 1.63742430 4.66693160) // 126
    (-0.44152224 1.96294520 4.67656204) // 127
    (-1.02140067 2.57496082 4.45932553) // 128
    (-0.24896217 3.08656920 4.99265923) // 129
    (-0.38687870 2.73783346 4.98586937) // 130
    (-0.77309795 2.48202927 4.71920251) // 131
    (-0.02675089 2.17728812 5.50906923) // 132
    (-0.27577306 2.28319292 5.24407437) // 133
    (-0.80624059 1.69453299 4.95934884) // 134
    (-0.66551791 2.04181536 4.96921417) // 135
    (-1.32234369 2.57407962 4.74046116) // 136
    (-0.63465357 3.18439014 5.28585329) // 137
    (-0.72596850 2.82066351 5.27890991) // 138
    (-1.06981355 2.51550825 5.00621384) // 139
    (-0.30765323 2.31430659 5.81393909) // 140
    (-0.56246833 2.38562174 5.54295281) // 141
    (-1.00571970 1.73160550 5.25178977) // 142
    (-0.91150156 2.09427119 5.26187815) // 143
    (-1.63359921 2.53868220 5.02222316) // 144
    (-1.04141226 3.23303720 5.57903099) // 145
    (-1.08536077 2.86061007 5.57194227) // 146
    (-1.38145425 2.51343258 5.29353836) // 147
    (-0.61745919 2.41301166 6.11817023) // 148
    (-0.87338424 2.45059730 5.84151189) // 149
    (-1.22309900 1.74467765 5.54425448) // 150
    (-1.17620414 2.11643030 5.55455402) // 151
    (-1.95141844 2.46646313 5.30460367) // 152
    (-1.46313566 3.22953064 5.87219252) // 153
    (-1.45970147 2.85453774 5.86496656) // 154
    (-1.70384286 2.47300398 5.58117213) // 155
    (-0.95073641 2.46909652 6.42177069) // 156
    (-1.20350184 2.47432068 6.13975564) // 157
    (-1.45527860 1.73015905 5.83674266) // 158
    (-1.45577294 2.10485194 5.84724162) // 159
    (-2.27161639 2.35551807 5.58758731) // 160
    (-1.89335587 3.17158914 6.16533830) // 161
    (-1.84321996 2.79994956 6.15798296) // 162
    (-2.03235022 2.39191403 5.86910746) // 163
    (-1.30154918 2.47901009 6.72475614) // 164
    (-1.54731661 2.45366003 6.43769188) // 165
    (-1.69858887 1.68491589 6.12925374) // 166
    (-1.74583646 2.05661294 6.13994068) // 167
    (-2.58962478 2.20442220 5.87115337) // 168
    (-2.32531067 3.05767936 6.45846886) // 169
    (-2.22980067 2.69504232 6.45099175) // 170
    (-2.36195773 2.26841374 6.15733401) // 171
    (-1.66355052 2.44000057 7.02714770) // 172
    (-1.89892059 2.38620293 6.73533117) // 173
    (-1.94886355 1.60634356 6.42178693) // 174
    (-2.04157711 1.96937442 6.43265079) // 175
    (-2.90055657 2.01229829 6.15527750) // 176
    (-2.75202368 2.88705811 6.75158484) // 177
    (-2.61306302 2.53875366 6.74399326) // 178
    (-2.68732947 2.10137375 6.44583959) // 179
    (-2.03007725 2.35015150 7.32897021) // 180
    (-2.25208981 2.27030036 7.03268594) // 181
    (-2.20151890 1.49242876 6.71434131) // 182
    (-2.33781063 1.84143899 6.72537149) // 183
    (-3.19928038 1.77887375 6.43993308) // 184
    (-3.16639185 2.65980526 7.04468694) // 185
    (-2.98644826 2.33079962 7.03698782) // 186
    (-3.00289252 1.89033387 6.73461089) // 187
    (-2.39424827 2.20840913 7.63025079) // 188
    (-2.60037646 2.10510156 7.32976975) // 189
    (-2.45163840 1.34180129 7.00691586) // 190
    (-2.62907153 1.67179764 7.01810228) // 191
    (-3.48050262 1.50452574 6.72509226) // 192
    (-3.56127902 2.37684631 7.33777587) // 193
    (-3.34331192 2.07170178 7.32997580) // 194
    (-3.30292372 1.63554149 7.02363399) // 195
    (-2.74906523 2.01460065 7.93101786) // 196
    (-2.93720502 1.89057894 7.62659679) // 197
    (-2.69406194 1.15377483 7.29950953) // 198
    (-2.90970338 1.46016604 7.31084263) // 199
    (-3.73885565 1.19031387 7.01072676) // 200
    (-3.92961379 2.03996365 7.63085239) // 201
    (-3.67702050 1.76280307 7.62295758) // 202
    (-3.58164143 1.33797818 7.31289476) // 203
    (-3.08751534 1.76944233 8.23130024) // 204
    (-3.25597127 1.62754241 7.92318150) // 205
    (-2.92347861 0.92837672 7.59212124) // 206
    (-3.17395291 1.20700960 7.60359200) // 207
    (-3.96899010 0.83800015 7.29680845) // 208
    (-4.26449007 1.65179592 7.92391722) // 209
    (-3.98105068 1.40627187 7.91593351) // 210
    (-3.83330070 0.99937398 7.60237912) // 211
    (-3.40267495 1.47453719 8.53112663) // 212
    (-3.55014312 1.31764250 8.21953821) // 213
    (-3.13452204 0.66636617 7.88474993) // 214
    (-3.41606667 0.91355699 7.89634986) // 215
    (-4.16566959 0.45005595 7.58330981) // 216
    (-4.55926867 1.21582508 8.21697109) // 217
    (-4.24908975 1.00509387 8.20890396) // 218
    (-4.05229021 0.62220931 7.89207332) // 219
    (-3.68781324 1.13236160 8.83052508) // 220
    (-3.81336203 0.96336213 8.51568095) // 221
    (-3.32186712 0.36924093 8.17739455) // 222
    (-3.63038897 0.58180180 8.18911568) // 223
    (-4.32386627 0.02965607 7.87020422) // 224
    (-4.80767831 0.73635097 8.51001469) // 225
    (-4.47513552 0.56305173 8.50186927) // 226
    (-4.23322950 0.20970428 8.18196404) // 227
    (-3.93649454 0.74624075 9.12952275) // 228
    (-4.03954363 0.56799662 8.81162330) // 229
    (-3.48032683 0.03923204 8.47005409) // 230
    (-3.81145978 0.21449226 8.48188897) // 231
    (-4.43885537 -0.41934013 8.15746615) // 232
    (-5.00391436 0.21845351 8.80304869) // 233
    (-4.65359435 0.08469242 8.79482979) // 234
    (-4.37106486 -0.23420441 8.47203852) // 235
    (-4.14267821 0.32031270 9.42814565) // 236
    (-4.22297628 0.13562201 9.10737826) // 237
    (-3.60494790 -0.32071314 8.76272758) // 238
    (-3.95411112 -0.18489091 8.77466923) // 239
    (-4.50630733 -0.89242010 8.44507134) // 240
    (-5.14273370 -0.33205719 9.09607372) // 241
    (-4.77937563 -0.42471736 9.08778581) // 242
    (-4.46116244 -0.70489881 8.76228462) // 243
    (-4.30081470 -0.14051869 9.72641854) // 244
    (-4.35841612 -0.32894811 9.40295823) // 245
    (-3.69110404 -0.70695948 9.05541410) // 246
    (-4.05356080 -0.61216850 9.06745601) // 247
    (-4.52237589 -1.38446142 8.73299681) // 248
    (-5.21954437 -0.90870250 9.38909038) // 249
    (-4.84798128 -0.95924739 9.38073766) // 250
    (-4.49939704 -1.19712685 9.05269087) // 251
    (-4.40593648 -0.63064175 10.02436484) // 252
    (-4.44117734 -0.82021701 9.69837489) // 253
    (-3.73458535 -1.11522407 9.34811279) // 254
    (-4.10550177 -1.06250818 9.36024886) // 255
    (-4.48378067 -1.88978676 9.02122096) // 256
    (-5.23048824 -1.50440783 9.68209924) // 257
    (-4.85558894 -1.51237115 9.67368560) // 258
    (-4.48223516 -1.70506062 9.34324646) // 259
    (-4.45374263 -1.14380546 10.32200658) // 260
    (-4.46721614 -1.33206997 9.99363927) // 261
    (-3.73168270 -1.54062701 9.64082280) // 262
    (-4.10618617 -1.53048074 9.65304739) // 263
    (-4.38788295 -2.40222937 9.30972350) // 264
    (-5.17251560 -2.11158554 9.97510082) // 265
    (-4.79912739 -2.07704323 9.96662991) // 266
    (-4.40681106 -2.22236514 9.63394125) // 267
    (-4.44067565 -1.67319772 10.61936444) // 268
    (-4.43320741 -1.85784932 10.28876172) // 269
    (-3.67926569 -1.97775244 9.93354339) // 270
    (-4.05250243 -2.01012668 9.94585119) // 271
    (-4.20962141 -2.76318642 9.41772212) // 272
    (-4.99404520 -2.75809889 10.14401589) // 273
    (-4.63405172 -2.65320425 10.13476945) // 274
    (-4.24183983 -2.65574801 9.77162257) // 275
    (-4.31697092 -2.32236595 10.84726296) // 276
    (-4.29551459 -2.43533778 10.48639299) // 277
    (-3.55403200 -2.34128012 10.09865381) // 278
    (-3.91404512 -2.44479486 10.11208841) // 279
    (-3.98030233 -3.21918174 9.55562337) // 280
    (-4.74764001 -3.33635699 10.29068259) // 281
    (-4.40314757 -3.18829931 10.28132456) // 282
    (-4.01947874 -3.12971168 9.91379495) // 283
    (-4.11675313 -2.84823289 11.00241698) // 284
    (-4.08770414 -2.94423726 10.63719175) // 285
    (-3.36943472 -2.74654676 10.24477304) // 286
    (-3.71404493 -2.89339419 10.25836979) // 287
    (-3.69074072 -3.68110875 9.70117629) // 288
    (-4.43920851 -3.88356567 10.43714938) // 289
    (-4.11278247 -3.69906111 10.42777971) // 290
    (-3.73854857 -3.59783265 10.05979317) // 291
    (-3.86321815 -3.33287689 11.14976862) // 292
    (-3.82478729 -3.42371672 10.78408933) // 293
    (-3.13302764 -3.14789439 10.39118275) // 294
    (-3.45969203 -3.33122547 10.40479640) // 295
    (-3.34737153 -4.11732015 9.84677274) // 296
    (-4.06763987 -4.40214673 10.58361502) // 297
    (-3.76309589 -4.18340338 10.57423429) // 298
    (-3.40296172 -4.04099009 10.20581315) // 299
    (-3.55268645 -3.79498465 11.29707588) // 300
    (-3.50561918 -3.87982235 10.93096472) // 301
    (-2.84875858 -3.52942450 10.53759411) // 302
    (-3.15365524 -3.74704227 10.55122383) // 303
    (-2.95245989 -4.52153521 9.99240998) // 304
    (-3.63562358 -4.88482589 10.73007960) // 305
    (-3.35650964 -4.63444438 10.72068834) // 306
    (-3.01492780 -4.45279904 10.35185353) // 307
    (-3.18718189 -4.22787906 11.44434155) // 308
    (-3.13228880 -4.30597096 11.07781931) // 309
    (-2.51824812 -3.88543457 10.68400702) // 310
    (-2.79782192 -4.13474872 10.69765204) // 311
    (-2.50900457 -4.88767251 10.13808553) // 312
    (-3.14668478 -5.32458606 10.87654318) // 313
    (-2.89624173 -5.04552768 10.86714188) // 314
    (-2.57740162 -4.82707091 10.49791306) // 315
    (-2.76950605 -4.62506858 11.59156816) // 316
    (-2.70765236 -4.69576894 11.22465437) // 317
    (-2.14379445 -4.21035207 10.83042138) // 318
    (-2.39479656 -4.48841069 10.84408098) // 319
    (-2.02072019 -5.20993559 10.28379704) // 320
    (-2.60515910 -5.71476303 11.02300582) // 321
    (-2.38628482 -5.41031406 11.01359496) // 322
    (-2.09406536 -5.15790034 10.64399057) // 323
    (-2.30322075 -4.98033731 11.73875809) // 324
    (-2.23531565 -5.04310120 11.37147110) // 325
    (-1.72836293 -4.49881462 10.97683710) // 326
    (-1.94788673 -4.80233986 10.99051060) // 327
    (-1.49200941 -5.48289687 10.42954236) // 328
    (-2.01615654 -6.04913858 11.16946758) // 329
    (-1.83137429 -5.72287110 11.16004760) // 330
    (-1.56930072 -5.43975025 10.79008499) // 331
    (-1.79262007 -5.28783323 11.88591354) // 332
    (-1.71960605 -5.34221843 11.51827058) // 333
    (-1.27556619 -4.74574921 11.12325411) // 334
    (-1.46107911 -5.07117642 11.13694086) // 335
    (-0.92792544 -5.70157886 10.57531950) // 336
    (-1.38551480 -6.32202989 11.31592850) // 337
    (-1.23694581 -5.97775959 11.30649982) // 338
    (-1.00815113 -5.66753407 10.93619532) // 339
    (-1.24269232 -5.54215363 12.03303656) // 340
    (-1.16553457 -5.58782146 11.66505384) // 341
    (-0.78963499 -4.94644957 11.26967233) // 342
    (-0.93900591 -5.28996943 11.28337173) // 343
    (-0.33412486 -5.86153130 10.72112659) // 344
    (-0.71974223 -6.52837388 11.46238865) // 345
    (-0.60908310 -6.17011534 11.45295165) // 346
    (-0.41627442 -5.83669405 11.08232062) // 347
    (-0.65907206 -5.73842636 12.18012903) // 348
    (-0.57874801 -5.77514157 11.81182184) // 349
    (-0.27537987 -5.09665034 11.41609169) // 350
    (-0.38690192 -5.45425356 11.42980317) // 351
    (0.28318842 -5.95890341 10.86696191) // 352
    (-0.02595117 -6.66380544 11.60884805) // 353
    (0.04554395 -6.29572539 11.59940311) // 354
    (0.20011375 -5.94327437 11.22846003) // 355
    (-0.04798273 -5.87238598 12.32719272) // 356
    (0.03452817 -5.90001566 11.95857544) // 357
    (0.26185597 -5.19259721 11.56251211) // 358
    (0.18944752 -5.56012127 11.57623514) // 359
    (0.91732792 -5.99050984 11.01282384) // 360
    (0.68821779 -6.72472839 11.75530676) // 361
    (0.71974990 -6.35109747 11.74585422) // 362
    (0.83430496 -5.98398820 11.37461276) // 363
    (0.58382955 -5.94044353 12.47422927) // 364
    (0.66755578 -5.95895505 12.10531547) // 365
    (0.81625211 -5.23111186 11.70893355) // 366
    (0.78376706 -5.60428921 11.72266761) // 367
    (1.56119700 -5.95388969 11.15871089) // 368
    (1.41467978 -6.70837812 11.90176482) // 369
    (1.40591253 -6.33352170 11.89230500) // 370
    (1.47917113 -5.95627749 11.52077804) // 371
    (1.22917038 -5.93974905 12.62124020) // 372
    (1.31315783 -5.94920717 12.25204270) // 373
    (1.38157417 -5.20965071 11.85535594) // 374
    (1.38935972 -5.58415800 11.86910057) // 375
    (2.20736846 -5.84735741 11.30462167) // 376
    (2.14499691 -6.61287500 12.04822225) // 377
    (2.09605889 -6.24112355 12.03875548) // 378
    (2.12724466 -5.85836476 11.66695519) // 379
    (1.88047879 -5.86824582 12.76822695) // 380
    (1.96379983 -5.86880897 12.39875783) // 381
    (1.95124401 -5.12635676 12.00177923) // 382
    (1.99918244 -5.49786443 12.01553397) // 383
    (2.84817024 -5.67004490 11.45055486) // 384
    (2.87047585 -6.43726768 12.19467910) // 385
    (2.78195762 -6.07290733 12.18520566) // 386
    (2.77080481 -5.68929594 11.81314354) // 387
    (2.52991535 -5.72471552 12.91519084) // 388
    (2.61167736 -5.71663125 12.54546153) // 389
    (2.51841638 -4.98010339 12.14820337) // 390
    (2.60592788 -5.34432519 12.16196780) // 391
    (3.47577625 -5.42193404 11.59650925) // 392
    (3.58227057 -6.18156559 12.34113539) // 393
    (3.45521646 -5.82878935 12.33165556) // 394
    (3.40196930 -5.44897358 11.95934249) // 395
    (3.16945569 -5.50881349 13.06213311) // 396
    (3.24880902 -5.49241331 12.69215442) // 397
    (3.07606078 -4.77052967 12.29462832) // 398
    (3.20211157 -5.12327140 12.30840203) // 399
    (4.08230132 -5.10387905 11.74248371) // 400
    (4.27148899 -5.84676001 12.48759116) // 401
    (4.10738387 -5.50962026 12.47810520) // 402
    (4.01279003 -5.13817978 12.10555148) // 403
    (3.79098835 -5.22109365 13.20905492) // 404
    (3.86713355 -5.19678708 12.83883708) // 405
    (3.61704788 -4.49806630 12.44105403) // 406
    (3.78016332 -4.83527340 12.45483664) // 407
    (4.65989906 -4.71761813 11.88847717) // 408
    (4.92930241 -5.43483324 12.63404643) // 409
    (4.73005349 -5.11719593 12.62455460) // 410
    (4.59535182 -4.75858838 12.25176997) // 411
    (4.38641564 -4.86302226 13.35595735) // 412
    (4.45861011 -4.83129044 12.98551005) // 413
    (4.13423913 -4.16395181 12.58748046) // 414
    (4.33252185 -4.48175522 12.60127161) // 415
    (5.20086149 -4.26577413 12.03448864) // 416
    (5.54705619 -4.94875556 12.78050124) // 417
    (5.31497016 -4.65425673 12.77100376) // 418
    (5.14187281 -4.31276602 12.39799746) // 419
    (4.94775652 -4.43698044 13.50284142) // 420
    (5.01532033 -4.39836917 13.13217385) // 421
    (4.62057875 -3.77023862 12.73390757) // 422
    (4.85173144 -4.06499826 12.74770692) // 423
    (5.69771909 -3.75184392 12.18051718) // 424
    (6.11638049 -4.39246982 12.92695559) // 425
    (5.85413622 -4.12447481 12.91745269) // 426
    (5.64480552 -3.80416186 12.54423349) // 427
    (5.46724994 -3.94625508 13.64970808) // 428
    (5.52957095 -3.90136744 13.27882893) // 429
    (5.06918671 -3.31978844 12.88033534) // 430
    (5.33053933 -3.58813412 12.89414256) // 431
    (6.14334012 -3.18017646 12.32656193) // 432
    (6.62929957 -3.77086359 13.07340953) // 433
    (6.33991671 -3.53242945 13.06390142) // 434
    (6.09693698 -3.23708589 12.69047762) // 435
    (5.93745759 -3.39501806 13.79655821) // 436
    (5.99399571 -3.34450669 13.42547576) // 437
    (5.47345161 -2.81625724 13.02676371) // 438
    (5.76199273 -3.05512628 13.04057851) // 439
    (6.53102780 -2.55593949 12.47262206) // 440
    (7.07833837 -3.08972900 13.21986306) // 441
    (6.76514217 -2.88357050 13.21034994) // 442
    (6.49148688 -2.61667575 12.83672944) // 443
    (6.35136453 -2.78829383 13.94339267) // 444
    (6.40165525 -2.73285292 13.57211474) // 445
    (5.82712225 -2.26406944 13.17319267) // 446
    (6.13953411 -2.47074072 13.18701475) // 447
    (6.85461421 -1.88507528 12.61869680) // 448
    (7.45662478 -2.35571069 13.36631621) // 449
    (7.12320766 -2.18417027 13.35679827) // 450
    (6.82220237 -1.94885257 12.98298857) // 451
    (6.70247657 -2.13191557 14.09021221) // 452
    (6.74613355 -2.07227271 13.71874627) // 453
    (6.12439657 -1.66838161 13.31962219) // 454
    (6.45709355 -1.84050574 13.33345126) // 455
    (7.10854948 -1.17424552 12.76478543) // 456
    (7.75798658 -1.57624209 13.51276900) // 457
    (7.40816670 -1.44126411 13.50324642) // 458
    (7.08344814 -1.24026583 13.12925464) // 459
    (6.98491294 -1.43247035 14.23701760) // 460
    (7.02162988 -1.36937824 13.86537072) // 461
    (6.36000695 -1.03503593 13.46605223) // 462
    (6.70917688 -1.17066103 13.47988804) // 463
    (7.28798522 -0.43076607 12.91088728) // 464
    (7.97704137 -0.75947081 13.65922144) // 465
    (7.61481885 -0.66258034 13.64969440) // 466
    (7.27029077 -0.49822797 13.27552732) // 467
    (7.19349312 -0.69723361 14.38380951) // 468
    (7.22304472 -0.63146174 14.01198844) // 469
    (6.52930046 -0.37050377 13.61248278) // 470
    (6.89094839 -0.46809682 13.62632507) // 471
    (7.38885089 0.33746794 13.05700170) // 472
    (8.10927861 0.08582620 13.80567355) // 473
    (7.73878977 0.14353981 13.79614221) // 474
    (7.37857591 0.26936068 13.42180629) // 475
    (7.32381660 0.06590617 14.53058860) // 476
    (7.34605877 0.13357980 14.15859974) // 477
    (6.62831310 0.31818002 13.75891380) // 478
    (6.99830702 0.25971672 13.77276234) // 479
    (7.40792209 1.12206584 13.20312809) // 480
    (8.15113234 0.95033683 13.95212535) // 481
    (7.77660257 0.96823143 13.94258987) // 482
    (7.40499745 1.05409594 13.56809124) // 483
    (7.37233438 0.84853206 14.67735548) // 484
    (7.38720360 0.91732905 14.30520494) // 485
    (6.65383690 1.02349153 13.90534527) // 486
    (7.02795486 1.00480878 13.91919983) // 487
    (7.34287974 1.91423311 13.34926589) // 488
    (8.10004371 1.82431635 14.09857685) // 489
    (7.72573942 1.80220339 14.08903738) // 490
    (7.34715744 1.84716176 13.71438190) // 491
    (7.33641130 1.64179141 14.82411073) // 492
    (7.34392322 1.71094091 14.45180432) // 493
    (6.60347887 1.73750003 14.05177718) // 494
    (6.97745700 1.75879523 14.06563755) // 495
    (7.19235916 2.70486998 13.49541457) // 496
    (7.95451227 2.69769707 14.24502807) // 497
    (7.58469249 2.63584289 14.23548475) // 498
    (7.20361593 2.63942934 13.86067800) // 499
    (7.21437809 2.43649592 14.97085489) // 500
    (7.21462540 2.50524231 14.59839816) // 501
    (6.47571087 2.45195724 14.19820950) // 502
    (6.84529179 2.51297297 14.21207546) // 503
    (6.95598841 3.48467592 13.64157362) // 504
    (7.71413523 3.56020407 14.39147902) // 505
    (7.35300343 3.45932610 14.38193198) // 506
    (6.97393002 3.42156202 14.00697928) // 507
    (7.00557246 3.22322771 15.11758848) // 508
    (6.99872205 3.29083792 14.74498671) // 509
    (6.26990970 3.15839247 14.34464222) // 510
    (6.63089067 3.25842030 14.35851358) // 511
    (6.63441504 4.24425874 13.78774256) // 512
    (7.37963403 4.40147551 14.53792971) // 513
    (7.03129068 4.26273335 14.52837908) // 514
    (6.65868119 4.18412497 14.15328550) // 515
    (6.71036843 3.99245035 15.26431197) // 516
    (6.69665788 4.05822077 14.89157021) // 517
    (5.98638653 3.84821274 14.49107531) // 518
    (6.33466693 3.98610197 14.50495188) // 519
    (6.22932078 4.97424704 13.93392095) // 520
    (6.95286762 5.21118621 14.68438015) // 521
    (6.62126399 5.03616782 14.67482606) // 522
    (6.25949058 4.91769823 14.29959646) // 523
    (6.33019343 4.73462340 15.41102583) // 524
    (6.30992690 4.79788641 15.03814890) // 525
    (5.62640524 4.51280648 14.63750876) // 526
    (5.95803281 4.68697795 14.65139036) // 527
    (5.74342382 5.66540471 14.08010836) // 528
    (6.43683218 5.97917301 14.83083035) // 529
    (6.12572592 5.76987601 14.82127292) // 530
    (5.77902173 5.61299186 14.44591192) // 531
    (5.86753261 5.44031923 15.55773049) // 532
    (5.84107613 5.50044912 15.18472298) // 533
    (5.19218922 5.14364979 14.78394255) // 534
    (5.50340444 5.35211440 14.79782902) // 535
    (5.18046825 6.30874605 14.22630440) // 536
    (5.83564688 6.69556037 14.97728033) // 537
    (5.54855986 6.45436890 14.96771966) // 538
    (5.22097055 6.26096174 14.59223170) // 539
    (5.32592021 6.10034057 15.70442635) // 540
    (5.29369653 6.15675901 15.33129267) // 541
    (4.68691619 5.73241373 14.93037667) // 542
    (4.97419452 5.97279558 14.94426784) // 543
    (4.52217814 6.86429735 14.37262472) // 544
    (5.11373445 7.34258137 15.12372707) // 545
    (4.86469313 7.06227677 15.11416479) // 546
    (4.56891498 6.82313475 14.73861362) // 547
    (4.69523870 6.68016824 15.85099549) // 548
    (4.65544526 6.73107020 15.47779900) // 549
    (4.11696207 6.22290386 15.07681551) // 550
    (4.36630695 6.50243801 15.09070901) // 551
    (3.79951542 7.34117262 14.51895263) // 552
    (4.32824384 7.88794726 15.27017360) // 553
    (4.11497482 7.57955054 15.26060981) // 554
    (3.85061060 7.30616322 14.88499933) // 555
    (3.99245849 7.18012598 15.99755689) // 556
    (3.94708214 7.22563990 15.62430146) // 557
    (3.47438519 6.65581188 15.22325464) // 558
    (3.68804549 6.96348284 15.23715033) // 559
    (3.02742729 7.74337780 14.66527897) // 560
    (3.49502531 8.34311748 15.41662018) // 561
    (3.31541783 8.01397717 15.40705486) // 562
    (3.08161882 7.71410733 15.03138425) // 563
    (3.23501913 7.60420600 16.14411988) // 564
    (3.18541475 7.64452143 15.77080471) // 565
    (2.77567161 7.02791340 15.36969371) // 566
    (2.95574098 7.35637513 15.38359162) // 567
    (2.21266890 8.06404082 14.81160726) // 568
    (2.61387746 8.70994299 15.56306670) // 569
    (2.46992742 8.36371972 15.55349988) // 570
    (2.26932314 8.04076864 15.17777016) // 571
    (2.43247560 7.94802424 16.29068089) // 572
    (2.37922649 7.98276035 15.91730697) // 573
    (2.03702327 7.32629922 15.51613285) // 574
    (2.18150032 7.67189784 15.53003295) // 575
    (1.36388013 8.29862775 14.95793747) // 576
    (1.69419357 8.98337310 15.70951318) // 577
    (1.58750018 8.62391704 15.69994487) // 578
    (1.42234347 8.28154437 15.32415702) // 579
    (1.59336193 8.20678058 16.43723994) // 580
    (1.53708436 8.23562078 16.06380826) // 581
    (1.26624807 7.54667800 15.66257206) // 582
    (1.37352743 7.90556950 15.67647431) // 583
    (0.49018302 8.44352311 15.10426954) // 584
    (0.74589922 9.15935862 15.85595960) // 585
    (0.67764736 8.79066663 15.84638984) // 586
    (0.54978925 8.43274887 15.47054481) // 587
    (0.72672298 8.37658531 16.58379709) // 588
    (0.66805924 8.39927997 16.21030859) // 589
    (0.47161527 7.68558870 15.80901134) // 590
    (0.54050538 8.05378167 15.82291571) // 591
    (-0.39891616 8.49608118 15.25060344) // 592
    (-0.22065472 9.23490795 16.00240598) // 593
    (-0.24970767 8.86107911 15.99283479) // 594
    (-0.33883839 8.49166572 15.61693352) // 595
    (-0.15798298 8.45451350 16.73035238) // 596
    (-0.21837180 8.47088188 16.35680799) // 597
    (-0.33823312 7.74045015 15.95545070) // 598
    (-0.30849687 8.11385020 15.96935715) // 599
    (-1.29363033 8.45466675 15.39693913) // 600
    (-1.19480511 9.20813164 16.14885232) // 601
    (-1.18433754 8.83332172 16.13927971) // 602
    (-1.23375015 8.45658927 15.76332312) // 603
    (-1.05098751 8.43864886 16.87690585) // 604
    (-1.11242874 8.44858032 16.50330648) // 605
    (-1.15437634 7.70960114 16.10189012) // 606
    (-1.16412316 8.08405647 16.11579862) // 607
    (-2.18399931 8.31868496 15.54327656) // 608
    (-2.16569414 9.07827497 16.29529860) // 609
    (-2.11582375 8.70665020 16.28572461) // 610