/*--------------------------------*- C++ -*----------------------------------*\
| =========                 |                                                 |
| \\      /  F ield         | OpenFOAM: The Open Source CFD Toolbox           |
|  \\    /   O peration     | Version:  v1806                                 |
|   \\  /    A nd           | Web:      www.OpenFOAM.com                      |
|    \\/     M anipulation  |                                                 |
\*---------------------------------------------------------------------------*/
FoamFile
{
    version     2.0;
    format      ascii;
    class       dictionary;
    object      blockMeshDict;
}
// * * * * * * * * * * * * * * * * * * * * * * * * * * * * * * * * * * * * * //

scale   1;

// the updated blockMesh (openfoam.com) fails on some meshes with default options;
// it reports report inconsistent number of faces although the mesh is still OK.
// this happens where two 'wedge' blocks with different numbers of cells join in the same
// point/edge.
mergeType points;
checkFaceCorrespondence false;



vertices
(
    
    (1.27416439 0.30171691 -0.78520062) // 0
    (0.56315260 -1.41169492 0.27785111) // 1
    (0.40141991 -0.67930560 0.26431740) // 2
    (0.75692580 0.17740031 -0.26720846) // 3
    (1.48128006 -0.09004474 -5.00000000) // 4
    (-0.14479420 -1.47830962 -5.00000000) // 5
    (-0.07239710 -0.73165481 -5.00000000) // 6
    (0.74064003 -0.03752237 -5.00000000) // 7
    (-0.82628425 -0.15417180 1.30717015) // 8
    (-0.29329852 -0.05054404 0.77897693) // 9
    (-1.50708509 0.16958612 -5.00000000) // 10
    (-0.75354255 0.09229306 -5.00000000) // 11
    (-0.07118295 1.51933639 0.21145615) // 12
    (0.08425213 0.78621006 0.23111992) // 13
    (0.16221728 1.50556009 -5.00000000) // 14
    (0.08110864 0.76028004 -5.00000000) // 15
);

blocks
(
    
    hex  ( 0 1 2 3 4 5 6 7 )  (10 10 1)  simpleGrading (1 1 1) // 0 
    hex  ( 1 8 9 2 5 10 11 6 )  (10 10 1)  simpleGrading (1 1 1) // 1 
    hex  ( 8 12 13 9 10 14 15 11 )  (10 10 1)  simpleGrading (1 1 1) // 2 
    hex  ( 12 0 3 13 14 4 7 15 )  (10 10 1)  simpleGrading (1 1 1) // 3 
    hex  ( 3 2 9 13 7 6 11 15 )  (10 10 1)  simpleGrading (1 1 1) // 4 
);

edges
(
    
    arc 0 1 (1.22738538 -0.77412267 -0.49610243)
    arc 4 5 (0.99469780 -1.09325685 -5.00000000)
    arc 1 8 (-0.25392565 -1.16503969 0.99530575)
    arc 5 10 (-1.14015994 -0.97587168 -5.00000000)
    arc 8 12 (-0.75357777 0.91384093 0.99530575)
    arc 10 14 (-0.98891796 1.15685491 -5.00000000)
    arc 12 0 (0.74358818 1.23879106 -0.49610243)
    arc 14 4 (1.14114057 0.97179421 -5.00000000)
);

boundary
(
    inlet
    {
        type patch;
        faces
        (
            (3 2 9 13)
            
        );

    }

    walls
    {
        type patch;
        faces
        (
            (4 5 1 0)
            (5 10 8 1)
            (10 14 12 8)
            (14 4 0 12)
            
        );

    }
);

mergePatchPairs
();



faces
();


// ************************************************************************* //