/*--------------------------------*- C++ -*----------------------------------*\
| =========                 |                                                 |
| \\      /  F ield         | OpenFOAM: The Open Source CFD Toolbox           |
|  \\    /   O peration     | Version:  v1806                                 |
|   \\  /    A nd           | Web:      www.OpenFOAM.com                      |
|    \\/     M anipulation  |                                                 |
\*---------------------------------------------------------------------------*/
FoamFile
{
    version     2.0;
    format      ascii;
    class       dictionary;
    object      blockMeshDict;
}
// * * * * * * * * * * * * * * * * * * * * * * * * * * * * * * * * * * * * * //

scale   1;

// the updated blockMesh (openfoam.com) fails on some meshes with default options;
// it reports report inconsistent number of faces although the mesh is still OK.
// this happens where two 'wedge' blocks with different numbers of cells join in the same
// point/edge.
mergeType points;
checkFaceCorrespondence false;



vertices
(
    
    (1.17306125 0.36252621 0.12049080) // 0
    (0.58644697 -0.94310219 0.59793062) // 1
    (0.43351733 -0.43630931 0.59185234) // 2
    (0.72682447 0.21650489 0.35313243) // 3
    (1.05249448 0.12324868 -0.15541427) // 4
    (0.22899329 -1.00045997 0.30459990) // 5
    (0.18582786 -0.48755473 0.29874347) // 6
    (0.59757845 0.07429960 0.06873638) // 7
    (-0.63990719 -0.19538949 1.06022036) // 8
    (-0.17965975 -0.06245296 0.82299721) // 9
    (-0.78858114 -0.04200583 0.75001694) // 10
    (-0.32295936 -0.00832766 0.52145198) // 11
    (-0.01437833 1.08651254 0.56811119) // 12
    (0.13310468 0.57849805 0.57694263) // 13
    (0.06720965 1.05128923 0.27586883) // 14
    (0.10493604 0.53831987 0.28437793) // 15
    (1.24206897 0.62343629 0.39220625) // 16
    (0.92963941 -0.81102566 0.89137081) // 17
    (0.66938266 -0.33330956 0.88501595) // 18
    (0.82559744 0.38392141 0.63543367) // 19
    (-0.45742817 -0.31413641 1.37469592) // 20
    (-0.02415113 -0.08486493 1.12667850) // 21
    (-0.10098428 1.10455829 0.86019452) // 22
    (0.15407081 0.62448242 0.86942780) // 23
    (1.25933842 0.89380440 0.65982308) // 24
    (1.24318582 -0.60942101 1.18491808) // 25
    (0.88349307 -0.18196883 1.17823310) // 26
    (0.89156937 0.56964387 0.91568560) // 27
    (-0.24966036 -0.38901514 1.69335080) // 28
    (0.13706998 -0.07176589 1.43244946) // 29
    (-0.18613688 1.10721637 1.15212225) // 30
    (0.16883173 0.67634986 1.16183518) // 31
    (1.22753383 1.16333051 0.92360403) // 32
    (1.51421374 -0.34670395 1.47856557) // 33
    (1.06730219 0.01237883 1.47150036) // 34
    (0.92396223 0.76739607 1.19401959) // 35
    (-0.02757543 -0.41386966 2.01591711) // 36
    (0.29640760 -0.02120402 1.74017613) // 37
    (-0.26533140 1.09829611 1.44390437) // 38
    (0.17752961 0.73487887 1.45416976) // 39
    (1.15093300 1.42405417 1.18393412) // 40
    (1.73287531 -0.03324537 1.77230322) // 41
    (1.21394372 0.24313240 1.76481270) // 42
    (0.92297256 0.97178217 1.47062815) // 43
    (0.19680118 -0.38605737 2.34200224) // 44
    (0.44590665 0.06672640 2.04966221) // 45
    (-0.33639853 1.08243758 1.73555549) // 46
    (0.17930679 0.80097387 1.74643883) // 47
    (1.03436630 1.67022169 1.44126887) // 48
    (1.89227071 0.31974393 2.06611913) // 49
    (1.31823027 0.50300507 2.05816417) // 50
    (0.88927807 1.17824395 1.74573904) // 51
    (0.41162738 -0.30625210 2.67114169) // 52
    (0.57790860 0.19000705 2.36067545) // 53
    (-0.39929336 1.06408972 2.02709290) // 54
    (0.17244824 0.87517796 2.03865105) // 55
    (0.88251416 1.89782236 1.69608941) // 56
    (1.98804236 0.70098742 2.36000073) // 57
    (1.37648425 0.78443950 2.35154848) // 58
    (0.82372015 1.38285697 2.01959282) // 59
    (0.60611309 -0.17787981 3.00284488) // 60
    (0.68551962 0.34500588 2.67297056) // 61
    (-0.45556383 1.04684328 2.31853486) // 62
    (0.15468115 0.95736743 2.33081555) // 63
    (0.69956420 2.10404031 1.94886855) // 64
    (2.01788000 1.09957477 2.65393567) // 65
    (1.38632053 1.07985605 2.64495947) // 66
    (0.72716263 1.58208882 2.29242591) // 67
    (0.77100950 -0.00644064 3.33662966) // 68
    (0.76288528 0.52684834 2.98630646) // 69
    (-0.50774069 1.03312090 2.60989934) // 70
    (0.12351018 1.04662911 2.62294130) // 71
    (0.48913337 2.28677343 2.20004833) // 72
    (1.98108224 1.50514475 2.94791240) // 73
    (1.34645312 1.38178006 2.93839134) // 74
    (0.60047869 1.77259439 2.56445931) // 75
    (0.89880881 0.20112357 3.67204529) // 76
    (0.80531641 0.72976946 3.30045779) // 77
    (-0.55879743 1.02413135 2.90120310) // 78
    (0.07651329 1.14127335 2.91503669) // 79
    (0.25434491 2.44427833 2.45002703) // 80
    (1.87822941 1.90792648 3.24192050) // 81
    (1.25655292 1.68290147 3.23183891) // 82
    (0.44461067 1.95107740 2.83589218) // 83
    (0.98376343 0.43695018 4.00868567) // 84
    (0.80931993 0.94741333 3.61522149) // 85
    (-0.61173794 1.01997895 3.19246126) // 86
    (0.01156924 1.23892771 3.20710929) // 87
    (-0.00202582 2.57494335 2.69915334) // 88
    (1.71096589 2.29872150 3.53595088) // 89
    (1.11715512 1.97610739 3.52529761) // 90
    (0.26065927 2.11421831 3.10689885) // 91
    (1.02181094 0.69265837 4.34619522) // 92
    (0.77257765 1.17307582 3.93041978) // 93
    (-0.66931255 1.01984369 3.48368706) // 94
    (-0.07298410 1.33666848 3.49916571) // 95
    (-0.27739061 2.67716622 2.94772545) // 96
    (1.48186638 2.66887666 3.82999573) // 97
    (0.92960346 2.25451183 3.81876356) // 98
    (0.04997496 2.25865661 3.37762842) // 99
    (1.01045969 0.95965282 4.68426988) // 100
    (0.69390011 1.39989991 4.24590063) // 101
    (-0.73383865 1.02217935 3.77489183) // 102
    (-0.17824906 1.43116317 3.79121161) // 103
    (-0.56920145 2.74930840 3.19599322) // 104
    (1.19435673 3.01027169 4.12404854) // 105
    (0.69601612 2.51149422 4.11223348) // 106
    (-0.18576297 2.38101257 3.64820581) // 107
    (0.94866411 1.22935402 5.02265488) // 108
    (0.57316980 1.62103538 4.56153665) // 109
    (-0.80709777 1.02490268 4.06608504) // 110
    (-0.30471114 1.51880971 4.08325173) // 111
    (-0.87482933 2.78970109 3.44416208) // 112
    (0.85266455 3.31532941 4.41810393) // 113
    (0.41926104 2.74074966 4.40570469) // 114
    (-0.44448590 2.47793550 3.91873376) // 115
    (0.83670241 1.49337722 5.36114073) // 116
    (0.41127997 1.82977356 4.87722309) // 117
    (-0.89028497 1.02556296 4.35727450) // 118
    (-0.45221372 1.59586643 4.37528997) // 119
    (-1.19147234 2.79668445 3.69239787) // 120
    (0.46178172 3.57704777 4.71215757) // 121
    (0.10293146 2.93635004 4.69917502) // 122
    (-0.72369557 2.54616838 4.18929517) // 123
    (0.67606063 1.74367655 5.69955834) // 124
    (0.21007091 2.01966443 5.19287541) // 125
    (-0.98399291 1.02148964 4.64846650) // 126
    (-0.61995586 1.65857097 4.66732949) // 127
    (-1.51609194 2.76866641 3.94083185) // 128
    (0.02742717 3.78904912 5.00620604) // 129
    (-0.24868403 3.09281296 4.99264277) // 130
    (-1.02044359 2.58262161 4.45995567) // 131
    (0.46932233 1.97266513 6.03777385) // 132
    (-0.02773645 2.18462097 5.50842667) // 133
    (-1.08821896 1.00991979 4.93966603) // 134
    (-0.80650710 1.70324830 4.95937276) // 135
    (-1.84537512 2.70419201 4.18956571) // 136
    (-0.44399710 3.94564116 5.30024667) // 137
    (-0.63064026 3.20517501 5.28610660) // 138
    (-1.33132927 2.58445043 4.73076612) // 139
    (0.22006224 2.17331805 6.37568358) // 140
    (-0.29861059 2.31901345 5.82382505) // 141
    (-1.20238767 0.98810813 5.23087693) // 142
    (-1.00983554 1.72640849 5.25142173) // 143
    (-2.17571904 2.60201680 4.43867615) // 144
    (-0.94546036 4.04188407 5.59427746) // 145
    (-1.03738482 3.26906594 5.57956551) // 146
    (-1.65251417 2.54913230 5.00176486) // 147
    (-0.06725843 2.33926214 6.71320931) // 148
    (-0.59828386 2.41775497 6.13903143) // 149
    (-1.32538415 0.95342234 5.52210214) // 150
    (-1.22734672 1.72483507 5.54347785) // 151
    (-2.50323561 2.46117993 4.68821912) // 152
    (-1.46936965 4.07365900 5.88829695) // 153
    (-1.46281846 3.28078079 5.87301877) // 154
    (-1.97975144 2.47454125 5.27297986) // 155
    (-0.38739672 2.46485454 7.05029399) // 156
    (-0.92183200 2.47637856 6.45401729) // 157
    (-1.45559577 0.90342593 5.81334376) // 158
    (-1.45593152 1.69566426 5.83554217) // 159
    (-2.82377302 2.28107370 4.93823348) // 160
    (-2.00764849 4.03773385 6.18230412) // 161
    (-1.90036627 3.23734723 6.16646587) // 162
    (-2.30842853 2.35901716 5.54443055) // 163
    (-0.73443417 2.54525109 7.38689800) // 164
    (-1.26375911 2.49110585 6.76876281) // 165
    (-1.59096025 0.83595030 6.10460328) // 166
    (-1.69202215 1.63645545 6.12761545) // 167
    (-3.13295187 2.06150722 5.18874423) // 168
    (-2.55182714 3.93182315 6.47629833) // 169
    (-2.34305891 3.13658598 6.45990649) // 170
    (-2.63362127 2.20142801 5.81612944) // 171
    (-1.10188516 2.57646463 7.72299585) // 172
    (-1.61808792 2.45890672 7.08325525) // 173
    (-1.72901935 0.74915684 6.39588164) // 174
    (-1.93165501 1.54525282 6.41969814) // 175
    (-3.42621375 1.80276244 5.43976526) // 176
    (-3.09314346 3.75463924 6.77027920) // 177
    (-2.78362292 2.97716243 6.75334044) // 178
    (-2.95015806 2.00122403 6.08808347) // 179
    (-1.48280787 2.55541299 8.05857337) // 180
    (-1.97845512 2.37754930 7.39748752) // 181
    (-1.86697721 0.64158994 6.68717937) // 182
    (-2.17053979 1.42063778 6.71179052) // 183
    (-3.69887993 1.50564115 5.69130164) // 184
    (-3.62265255 3.50593276 7.06424661) // 185
    (-3.21457861 2.75862801 7.04676765) // 186
    (-3.25269229 1.75848221 6.36029517) // 187
    (-1.86991764 2.47995643 8.39362538) // 188
    (-2.33821115 2.24563985 7.71145704) // 189
    (-2.00176267 0.51222103 6.97849667) // 190
    (-2.40413367 1.26177215 7.00389268) // 191
    (-3.94621845 1.17150199 5.94335159) // 192
    (-4.13134362 3.18652073 7.35820060) // 193
    (-3.62834422 2.48145008 7.34018816) // 194
    (-3.53578163 1.47394071 6.63276366) // 195
    (-2.25570249 2.34892396 8.72815371) // 196
    (-2.69052365 2.06265169 8.02516472) // 197
    (-2.13009502 0.36048378 7.26983346) // 198
    (-2.62771992 1.06843160 7.29600459) // 199
    (-4.16351760 0.80228669 6.19590805) // 200
    (-4.61026221 2.79830113 7.65214135) // 201
    (-4.01734471 2.14702934 7.63360206) // 202
    (-3.79397240 1.14902212 6.90548540) // 203
    (-2.63253996 2.16212799 9.06216557) // 204
    (-3.02848358 1.82894277 8.33861416) // 205
    (-2.24855229 0.18630055 7.56118948) // 206
    (-2.83648975 0.84102905 7.58812612) // 207
    (-4.34616399 0.40053489 6.44895997) // 208
    (-5.05063572 2.34425286 7.94606916) // 209
    (-4.37412351 1.75770431 7.92700948) // 210
    (-4.02188764 0.78584533 7.17845488) // 211
    (-2.99281458 1.92036711 9.39567219) // 212
    (-3.34521294 1.54576144 8.65181099) // 213
    (-2.35364148 -0.00990015 7.85256430) // 214
    (-3.02562639 0.58062781 7.88025705) // 215
    (-4.48972341 -0.03061251 6.70249344) // 216
    (-5.44400031 1.82842081 8.23998439) // 217
    (-4.69145556 1.31674215 8.22041061) // 218
    (-4.21431711 0.38722549 7.45166513) // 219
    (-3.32903478 1.62541661 9.72868779) // 220
    (-3.63397280 1.21524005 8.96476231) // 221
    (-2.44186981 -0.22717500 8.14395741) // 222
    (-3.19039032 0.28894425 8.17239712) // 223
    (-4.59002291 -0.48742186 6.95649245) // 224
    (-5.78232718 1.25588557 8.53388746) // 225
    (-4.96245995 0.82831589 8.51380565) // 226
    (-4.36630782 -0.04333783 7.72510815) // 227
    (-3.63394819 1.28000653 10.06122868) // 228
    (-3.88827046 0.84037637 9.27747626) // 229
    (-2.50981613 -0.46406631 8.43536819) // 230
    (-3.32620443 -0.03166005 8.46454602) // 231
    (-4.64323234 -0.96558692 7.21093966) // 232
    (-6.05814622 0.63271796 8.82777881) // 233
    (-5.18071028 0.29746795 8.80719485) // 234
    (-4.47325335 -0.50168449 7.99877527) // 235
    (-3.90065409 0.88778744 10.39331254) // 236
    (-4.10196422 0.42500269 9.58996171) // 237
    (-2.55420160 -0.71861128 8.72679599) // 238
    (-3.42873797 -0.37819667 8.75670343) // 239
    (-4.64594379 -1.46026040 7.46581687) // 240
    (-6.26466504 -0.03408150 9.12165893) // 241
    (-5.34034130 -0.26993976 9.10057842) // 242
    (-4.53098067 -0.98302921 8.27265739) // 243
    (-4.12271150 0.45328388 10.72495793) // 244
    (-4.26936453 -0.02625707 9.90222792) // 245
    (-2.57195856 -0.98836007 9.01824011) // 246
    (-3.49398806 -0.74707904 9.04886901) // 247
    (-4.59524747 -1.96609666 7.72110551) // 248
    (-6.39588159 -0.73665750 9.41552830) // 249
    (-5.43614989 -0.86728870 9.39395662) // 250
    (-4.53583283 -1.48200828 8.54674522) // 251
    (-4.29424195 -0.01816403 11.05618380) // 252
    (-4.38533007 -0.50804196 10.21428437) // 253
    (-2.56029691 -1.27040237 9.30969984) // 254
    (-3.51835755 -1.13416113 9.34104239) // 255
    (-4.48880258 -2.47730472 7.97678688) // 256
    (-6.44668845 -1.46638860 9.70938742) // 257
    (-5.46368905 -1.48727890 9.68732969) // 258
    (-4.48474611 -1.99273696 8.82102942) // 259
    (-4.41002527 -0.52047034 11.38700919) // 260
    (-4.44535746 -1.01431977 10.52614058) // 261
    (-2.51676666 -1.56140227 9.60117449) // 262
    (-3.49872815 -1.53478573 9.63322323) // 263
    (-4.32490186 -2.98771107 8.23284249) // 264
    (-6.41296723 -2.21398852 10.00323675) // 265
    (-5.41935320 -2.12201563 9.98069787) // 266
    (-4.37532052 -2.50887691 9.09550074) // 267
    (-4.46558734 -1.04688369 11.71745298) // 268
    (-4.44566326 -1.53846322 10.83780599) // 269
    (-2.43931609 -1.85764073 9.89266334) // 270
    (-3.43252763 -1.94384174 9.92541117) // 271
    (-4.10565722 -3.09812282 8.27348954) // 272
    (-6.15797090 -3.08475622 10.17391153) // 273
    (-5.21601457 -2.81047120 10.14971727) // 274
    (-4.18985773 -2.81715450 9.19950628) // 275
    (-4.38613511 -1.94530996 12.01402947) // 276
    (-4.33009668 -2.24074807 11.06977624) // 277
    (-2.39004520 -1.99483339 10.05521699) // 278
    (-3.33205172 -2.26550978 10.09037000) // 279
    (-3.85852775 -3.48601145 8.43955170) // 280
    (-5.82124039 -3.78541556 10.31984246) // 281
    (-4.93994777 -3.40698654 10.29590449) // 282
    (-3.95859145 -3.25728449 9.35575911) // 283
    (-4.20695943 -2.53769892 12.14046798) // 284
    (-4.13280729 -2.78312822 11.20621725) // 285
    (-2.29547104 -2.27788726 10.20240525) // 286
    (-3.17706309 -2.65322239 10.23718589) // 287
    (-3.54770538 -3.91940112 8.62574236) // 288
    (-5.41839578 -4.42493214 10.46524749) // 289
    (-4.60237610 -3.96412196 10.44182877) // 290
    (-3.66703090 -3.71135644 9.52207620) // 291
    (-3.97811743 -3.04943843 12.24638158) // 292
    (-3.88223693 -3.27637510 11.33239581) // 293
    (-2.15312985 -2.58755447 10.35035763) // 294
    (-2.96974314 -3.04543312 10.38438384) // 295
    (-3.18752585 -4.32635966 8.81214331) // 296
    (-4.94565954 -5.02095503 10.61064703) // 297
    (-4.20210572 -4.48740481 10.58775029) // 298
    (-3.32303888 -4.14010713 9.68849843) // 299
    (-3.68795131 -3.53984363 12.35208076) // 300
    (-3.57325161 -3.74684911 11.45846716) // 301
    (-1.96972713 -2.89224678 10.49831799) // 302
    (-2.71413952 -3.42305069 10.53158577) // 303
    (-2.78011071 -4.70115509 8.99874029) // 304
    (-4.40779424 -5.56589984 10.75604145) // 305
    (-3.74259497 -4.96979830 10.73366926) // 306
    (-2.92875321 -4.53742592 9.85501868) // 307
    (-3.33856564 -4.00168723 12.45758005) // 308
    (-3.20798068 -4.18769199 11.58443856) // 309
    (-1.74481080 -3.18657797 10.64628579) // 310
    (-2.41110326 -3.78013736 10.67879143) // 311
    (-2.32825928 -5.03821410 9.18552020) // 312
    (-3.81037783 -6.05270605 10.90143108) // 313
    (-3.22808825 -5.40462429 10.87958583) // 314
    (-2.48702898 -4.89737831 10.02163039) // 315
    (-2.93290044 -4.42796058 12.56289281) // 316
    (-2.78934956 -4.59225155 11.71031670) // 317
    (-1.47862594 -3.46502492 10.79426054) // 318
    (-2.06221230 -4.11078373 10.82600056) // 319
    (-1.83543740 -5.33220318 9.37247094) // 320
    (-3.15974637 -6.47492404 11.04681626) // 321
    (-2.66357846 -5.78565085 11.02550018) // 322
    (-2.00142397 -5.21429041 10.18832752) // 323
    (-2.47470789 -4.81196844 12.66803137) // 324
    (-2.32105922 -4.95417305 11.83610773) // 325
    (-1.17213651 -3.72201637 10.94224177) // 326
    (-1.66977352 -4.40919701 10.97321294) // 327
    (-1.30575649 -5.57810895 9.55958137) // 328
    (-2.46292738 -6.82679599 11.19219726) // 329
    (-2.05475970 -6.10717575 11.17141244) // 330
    (-1.47617426 -5.48283223 10.35510450) // 331
    (-1.96851848 -5.14742155 12.77300709) // 332
    (-1.80755525 -5.26748853 11.96181735) // 333
    (-0.82703614 -3.95202430 11.09022906) // 334
    (-1.23681408 -4.66978991 11.12042834) // 335
    (-0.74394297 -5.77131643 9.74684121) // 336
    (-1.72756460 -7.10332950 11.33757435) // 337
    (-1.40797071 -6.36410500 11.31732274) // 338
    (-0.91615990 -5.69809846 10.52195617) // 339
    (-1.41959667 -5.42852530 12.87783046) // 340
    (-1.25398675 -5.52670290 12.08745080) // 341
    (-0.44574747 -4.14965699 11.23822203) // 342
    (-0.76706215 -4.88726874 11.26764658) // 343
    (-0.15529824 -5.90768416 9.93424095) // 344
    (-0.96183489 -7.30036316 11.48294779) // 345
    (-0.73012943 -6.55202525 11.46323122) // 346
    (-0.32686111 -5.85568575 10.68887780) // 347
    (-0.83388659 -5.65006382 12.98251119) // 348
    (-0.66615528 -5.72687558 12.21301292) // 349
    (-0.03140999 -4.30975200 11.38622030) // 350
    (-0.26491698 -5.05671967 11.41486747) // 351
    (0.45435041 -5.98361518 10.12177179) // 352
    (-0.17435817 -7.41462301 11.62831781) // 353
    (-0.02865955 -6.66726911 11.60913799) // 354
    (0.28569474 -5.95176519 10.85586497) // 355
    (-0.21794815 -5.80747799 13.08705823) // 356
    (-0.05045454 -5.86369660 12.33850819) // 357
    (0.41214362 -4.42746797 11.53422356) // 358
    (0.26459134 -5.17369159 11.56209086) // 359
    (1.07870747 -5.99612258 10.30942560) // 360
    (0.62589869 -7.44376937 11.77368461) // 361
    (0.68859035 -6.70697257 11.75504314) // 362
    (0.91499474 -5.98314917 11.02291363) // 363
    (0.42111558 -5.89693648 13.19147987) // 364
    (0.58619879 -5.93355612 12.46394077) // 365
    (0.88042253 -4.49837368 11.68223148) // 366
    (0.81585226 -5.23427472 11.70931658) // 367
    (1.71107491 -5.94288878 10.49719484) // 368
    (1.42972286 -7.38643324 11.91904840) // 369
    (1.41343407 -6.66912353 11.90094680) // 370
    (1.55411009 -5.94735130 11.19002001) // 371
    (1.07573924 -5.91539879 13.29578381) // 372
    (1.23644225 -5.93360631 12.58931450) // 373
    (1.36832387 -4.51853309 11.83024378) // 374
    (1.38273457 -5.23517345 11.85654448) // 375
    (2.34442510 -5.82231749 10.68507253) // 376
    (2.22776042 -7.24224178 12.06440936) // 377
    (2.13744064 -6.55260088 12.04684903) // 378
    (2.19577299 -5.84263873 11.35718062) // 379
    (1.73798315 -5.86066928 13.39997717) // 380
    (1.89255201 -5.86181463 12.71463294) // 381
    (1.87018941 -4.48458495 11.97826020) // 382
    (1.95865514 -5.17377246 12.00377445) // 383
    (2.97148025 -5.63357754 10.87305218) // 384
    (3.01062382 -7.01183253 12.20976765) // 385
    (2.85203160 -6.35720336 12.19274993) // 386
    (2.83245982 -5.66807586 11.52439220) // 387
    (2.39962753 -5.73144151 13.50406655) // 388
    (2.54653346 -5.71700785 12.83989938) // 389
    (2.37987206 -4.39381580 12.12628049) // 390
    (2.53665572 -5.04819499 12.15100635) // 391
    (3.58479733 -5.37663780 11.06112779) // 392
    (3.76900077 -6.69685600 12.35512343) // 393
    (3.54858156 -6.08366783 12.33864958) // 394
    (3.45647984 -5.42355872 11.69165176) // 395
    (3.05227192 -5.52733208 13.60805810) // 396
    (3.19021713 -5.49890586 12.96511691) // 397
    (2.89081166 -4.24422512 12.27430442) // 398
    (3.10948700 -4.85735239 12.29824008) // 399
    (4.17685750 -5.05229246 11.24929374) // 400
    (4.49376335 -6.29996657 12.50047685) // 401
    (4.21852105 -5.73367647 12.48454805) // 402
    (4.06006813 -5.10983941 11.85895650) // 403
    (3.68743843 -5.24890334 13.71195751) // 404
    (3.81535859 -5.20814485 13.09028838) // 405
    (3.39611883 -4.03458150 12.42233178) // 406
    (3.66969879 -4.60098393 12.44547552) // 407
    (4.74015904 -4.66217623 11.43754485) // 408
    (5.17607591 -5.82480158 12.64582805) // 409
    (4.85344025 -5.30985270 12.63044541) // 410
    (4.63548181 -4.72854002 12.02630381) // 411
    (4.29667793 -4.89767466 13.81577009) // 412
    (4.41374125 -4.84628924 13.21541643) // 413
    (3.88866604 -3.76446883 12.57036238) // 414
    (4.20973531 -4.27968632 12.59271257) // 415
    (5.26731236 -4.20876895 11.62587627) // 416
    (5.80750071 -5.27594899 12.79117715) // 417
    (5.44519242 -4.81574571 12.77634171) // 418
    (5.17509825 -4.28215569 12.19369127) // 419
    (4.87167750 -4.47612180 13.91950079) // 420
    (4.97728082 -4.41583211 13.34050353) // 421
    (4.36118463 -3.43432181 12.71839602) // 422
    (4.72203438 -3.89493212 12.73995115) // 423
    (5.75113627 -3.69538934 11.81428347) // 424
    (6.38009986 -4.65890348 12.93652427) // 425
    (5.98599590 -4.25580357 12.92223703) // 426
    (5.67151411 -3.77404650 12.36111663) // 427
    (5.40436818 -3.98766419 14.02315420) // 428
    (5.49813007 -3.92018392 13.46555200) // 429
    (4.80636644 -3.04544976 12.86643254) // 430
    (5.19912920 -3.44907671 12.88719117) // 431
    (6.18475392 -3.12617777 12.00276226) // 432
    (6.88653251 -3.98001185 13.08186952) // 433
    (6.46853318 -3.63533517 13.06813141) // 434
    (6.11764388 -3.20841813 12.52857778) // 435
    (5.88703137 -3.43664027 14.12673462) // 436
    (5.96878260 -3.36364938 13.59056397) // 437
    (5.21696887 -2.60004841 13.01447178) // 438
    (5.63375136 -2.94535345 13.03443254) // 439
    (6.56168734 -2.50606796 12.19130870) // 440
    (7.32014601 -3.24640787 13.22721300) // 441
    (6.88604599 -2.96046119 13.21402491) // 442
    (6.50681665 -2.59029124 12.69607276) // 443
    (6.31240276 -2.82827074 14.23024606) // 444
    (6.38217436 -2.75139263 13.71554144) // 445
    (5.58592172 -2.10119913 13.16251359) // 446
    (6.01893384 -2.38785682 13.18167520) // 447
    (6.87594925 -1.84074785 12.37991912) // 448
    (7.67505991 -2.46593750 13.37255481) // 449
    (7.23242522 -2.23805460 13.35991757) // 450
    (6.83286989 -1.92545977 12.86359973) // 451
    (6.67377231 -2.16861024 14.33369225) // 452
    (6.73178142 -2.08939097 13.84048629) // 453
    (5.90643443 -1.55285535 13.31055782) // 454
    (6.34811248 -1.78151353 13.32891908) // 455
    (7.12213093 -1.13660974 12.56859009) // 456
    (7.94624188 -1.64707508 13.51789504) // 457
    (7.50229435 -1.47567120 13.50580944) // 458
    (7.09023887 -1.22043853 13.03115697) // 459
    (6.96507905 -1.46448768 14.43707671) // 460
    (7.01171293 -1.38437750 13.96540028) // 461
    (6.17210229 -0.95981620 13.45860436) // 462
    (6.61522455 -1.13204175 13.47616410) // 463
    (7.29548486 -0.40069040 12.75731840) // 464
    (8.12957452 -0.79883156 13.66323377) // 465
    (7.69108542 -0.68147096 13.65170057) // 466
    (7.27404059 -0.48240039 13.19874288) // 467
    (7.18099939 -0.72343598 14.54040269) // 468
    (7.21679786 -0.64377318 14.09028503) // 469
    (6.37700985 -0.32768728 13.60665307) // 470
    (6.81480309 -0.44589882 13.62341021) // 471
    (7.39200102 0.35939866 12.94610104) // 472
    (8.22191217 0.06934446 13.80857108) // 473
    (7.79510655 0.13586903 13.79759098) // 474
    (7.38015098 0.28089613 13.36635596) // 475
    (7.31702773 0.04638829 14.64367328) // 476
    (7.34266433 0.12439094 14.21514208) // 477
    (6.51583031 0.33717093 13.75470384) // 478
    (6.94206562 0.26978226 13.77065736) // 479
    (7.40847571 1.13554971 13.13493518) // 480
    (8.22112710 0.94767155 13.95390704) // 481
    (7.81159996 0.96724921 13.94348072) // 482
    (7.40527426 1.06118829 13.53399479) // 483
    (7.36954833 0.83629433 14.74689135) // 484
    (7.38581057 0.91156060 14.33997287) // 485
    (6.58391918 1.02770671 13.90275657) // 486
    (6.99299599 1.00726679 13.91790548) // 487
    (7.34257183 1.91924556 13.32381819) // 488
    (8.12614433 1.82614522 14.09924173) // 489
    (7.73878973 1.80324857 14.08936982) // 490
    (7.34700348 1.84979874 13.70165805) // 491
    (7.33589731 1.63715473 14.85005959) // 492
    (7.34366622 1.70875333 14.46477875) // 493
    (6.57740087 1.73625211 14.05081115) // 494
    (6.96441800 1.75830202 14.06515453) // 495
    (7.19286969 2.70165345 13.51274756) // 496
    (7.93696461 2.69465119 14.24457521) // 497
    (7.57591866 2.63423104 14.23525831) // 498
    (7.20387120 2.63773217 13.86934449) // 499
    (7.21441391 2.43951017 14.95318055) // 500
    (7.21464331 2.50666053 14.58956099) // 501
    (6.49324692 2.45460854 14.19886749) // 502
    (6.85405981 2.51420971 14.21240446) // 503
    (6.95890753 3.47372514 13.70172098) // 504
    (7.65467524 3.54308112 14.38990753) // 505
    (7.32327344 3.45045605 14.38114624) // 506
    (6.97538958 3.41577806 14.03705296) // 507
    (7.00448022 3.23368001 15.05625660) // 508
    (6.99817593 3.29575549 14.71432077) // 509
    (6.32934444 3.17414192 14.34692551) // 510
    (6.66060804 3.26598645 14.35965522) // 511
    (6.64121097 4.22630194 13.89073623) // 512
    (7.28144846 4.36144924 14.53523877) // 513
    (6.98219790 4.24219198 14.52703361) // 514
    (6.66207915 4.17461833 14.20478234) // 515
    (6.70654865 4.00987760 15.15929000) // 516
    (6.69474799 4.06640616 14.83905922) // 517
    (6.08455383 3.88588635 14.49498511) // 518
    (6.38375059 4.00441053 14.50690678) // 519
    (6.24131086 4.95022359 14.07979125) // 520
    (6.82052732 5.14000872 14.68056896) // 521
    (6.55509384 4.99983116 14.67292046) // 522
    (6.26548561 4.90493860 14.37253161) // 523
    (6.32215670 4.75832868 15.26228284) // 524
    (6.30590853 4.80899114 14.96377740) // 525
    (5.75875450 4.58065499 14.64304622) // 526
    (6.02420743 4.72015430 14.65415909) // 527
    (5.76174896 5.63643952 14.26888408) // 528
    (6.27619904 5.86936642 14.82589817) // 529
    (6.04540935 5.71400514 14.81880682) // 530
    (5.78818430 5.59754169 14.54029978) // 531
    (5.85392859 5.46939182 15.36523712) // 532
    (5.83427412 5.51401784 15.08847630) // 533
    (5.35287796 5.24915689 14.79110877) // 534
    (5.58374881 5.40390038 14.80141213) // 535
    (5.20607128 6.27612130 14.45801290) // 536
    (5.65375617 6.54059461 14.97122643) // 537
    (5.45761450 6.37569879 14.96469271) // 538
    (5.23377206 6.24346213 14.70808595) // 539
    (5.30556348 6.13367919 15.46815471) // 540
    (5.28351816 6.17224107 15.21315685) // 541
    (4.86892742 5.88211809 14.93917268) // 542
    (5.06520013 6.04646053 14.94866584) // 543
    (4.55332419 6.83435394 14.61661864) // 544
    (4.94766614 7.15324785 15.11735218) // 545
    (4.78165898 6.96636000 15.11097735) // 546
    (4.58448800 6.80691305 14.86061058) // 547
    (4.66872312 6.71160345 15.60219648) // 548
    (4.64218747 6.74553780 15.35339949) // 549
    (4.28323257 6.40672376 15.08607790) // 550
    (4.44944219 6.59309796 15.09534020) // 551
    (3.83357887 7.31533302 14.76298376) // 552
    (4.18606449 7.67984945 15.26379774) // 553
    (4.04388514 7.47425163 15.25742188) // 554
    (3.86764233 7.29199341 15.00701489) // 555
    (3.96220759 7.20796859 15.74871993) // 556
    (3.93195669 7.23831120 15.49988298) // 557
    (3.61682539 6.85842585 15.23251843) // 558
    (3.75926559 7.06353983 15.24178223) // 559
    (3.06355498 7.72136415 14.90934916) // 560
    (3.37528699 8.12119061 15.41024330) // 561
    (3.25554867 7.90176373 15.40386642) // 562
    (3.09968267 7.70185050 15.15341935) // 563
    (3.20194954 7.62858295 15.89524310) // 564
    (3.16887995 7.65545990 15.64636632) // 565
    (2.89571786 7.24438789 15.37895898) // 566
    (3.01576411 7.46336237 15.38822426) // 567
    (2.25043839 8.04602603 15.05571586) // 568
    (2.51791077 8.47662748 15.55668882) // 569
    (2.42194407 8.24581197 15.55031094) // 570
    (2.28820788 8.03051125 15.29982446) // 571
    (2.39697619 7.96868165 16.04176494) // 572
    (2.36147678 7.99183906 15.79284900) // 573
    (2.13334131 7.55419830 15.52539958) // 574
    (2.22965934 7.78459738 15.53466632) // 575
    (1.40285569 8.28473883 15.20208383) // 576
    (1.62306465 8.74123573 15.70313431) // 577
    (1.55193572 8.50159836 15.69675544) // 578
    (1.44183124 8.27334991 15.44623020) // 579
    (1.55584355 8.22350738 16.18828549) // 580
    (1.51832517 8.24273419 15.93933103) // 581
    (1.33776765 7.78343900 15.67184023) // 582
    (1.40928722 8.02269999 15.68110840) // 583
    (0.52992051 8.43384029 15.34845305) // 584
    (0.70039798 8.91106396 15.84957976) // 585
    (0.65489674 8.66526930 15.84319992) // 586
    (0.56965800 8.42665746 15.59263657) // 587
    (0.68761382 8.38921508 16.33480476) // 588
    (0.64850465 8.40434486 16.08581242) // 589
    (0.51754201 7.92855068 15.81828092) // 590
    (0.56346875 8.17401266 15.82755050) // 591
    (-0.35886431 8.49063754 15.49482349) // 592
    (-0.24002335 8.98318872 15.99602519) // 593
    (-0.25939198 8.73396949 15.98964439) // 594
    (-0.31881246 8.48769390 15.73904355) // 595
    (-0.19824219 8.46292575 16.48132279) // 596
    (-0.23850140 8.47383801 16.23229319) // 597
    (-0.31840895 7.98688352 15.96472166) // 598
    (-0.29858478 8.23581689 15.97399263) // 599
    (-1.25371021 8.45344843 15.64119512) // 600
    (-1.18782673 8.95575836 16.14247058) // 601
    (-1.18084835 8.70588508 16.13608885) // 602
    (-1.21379009 8.45473011 15.88545112) // 603
    (-1.09194833 8.44276984 16.62783960) // 604
    (-1.13290915 8.44939081 16.37877336) // 605
    (-1.16087422 7.95673802 16.11116245) // 606
    (-1.16737210 8.20637491 16.12043478) // 607
    (-2.14465067 8.32163179 15.78756792) // 608
    (-2.13244721 8.82802513 16.28891594) // 609
    (-2.09920029 8.58027528 16.28253329) // 610