/*--------------------------------*- C++ -*----------------------------------*\
| =========                 |                                                 |
| \\      /  F ield         | OpenFOAM: The Open Source CFD Toolbox           |
|  \\    /   O peration     | Version:  v2012                                 |
|   \\  /    A nd           | Website:  www.openfoam.com                      |
|    \\/     M anipulation  |                                                 |
\*---------------------------------------------------------------------------*/
FoamFile
{
    version     2.0;
    format      ascii;
    class       featureEdgeMesh;
    location    "constant/triSurface";
    object      reactor.eMesh;
}
// * * * * * * * * * * * * * * * * * * * * * * * * * * * * * * * * * * * * * //


// points:

116
(
(0.025 0.1 0.0375)
(0.0236485 0.1 0.0375733)
(0.0289913 0.1 0.0381543)
(0.0276871 0.1 0.0377922)
(0.0263515 0.1 0.0375733)
(0.0325647 0.1 0.0400488)
(0.0314444 0.1 0.0392893)
(0.0302486 0.1 0.0386553)
(0.0353461 0.1 0.0429852)
(0.034527 0.1 0.0419077)
(0.0335962 0.1 0.0409251)
(0.0370444 0.1 0.0466559)
(0.0366122 0.1 0.0453733)
(0.0360439 0.1 0.0441449)
(0.0374817 0.1 0.0506767)
(0.0374817 0.1 0.0493233)
(0.0373353 0.1 0.0479777)
(0.0366122 0.1 0.0546267)
(0.0370444 0.1 0.0533441)
(0.0373353 0.1 0.0520223)
(0.034527 0.1 0.0580923)
(0.0353461 0.1 0.0570148)
(0.0360439 0.1 0.0558551)
(0.0314444 0.1 0.0607107)
(0.0325647 0.1 0.0599512)
(0.0335962 0.1 0.0590749)
(0.0276871 0.1 0.0622078)
(0.0289913 0.1 0.0618457)
(0.0302486 0.1 0.0613447)
(0.0236485 0.1 0.0624267)
(0.025 0.1 0.0625)
(0.0263515 0.1 0.0624267)
(0.0197514 0.1 0.0613447)
(0.0210087 0.1 0.0618457)
(0.0223129 0.1 0.0622078)
(0.0164038 0.1 0.0590749)
(0.0174353 0.1 0.0599512)
(0.0185556 0.1 0.0607107)
(0.0139561 0.1 0.0558551)
(0.0146539 0.1 0.0570148)
(0.015473 0.1 0.0580923)
(0.0126647 0.1 0.0520223)
(0.0129556 0.1 0.0533441)
(0.0133878 0.1 0.0546267)
(0.0126647 0.1 0.0479777)
(0.0125183 0.1 0.0493233)
(0.0125183 0.1 0.0506767)
(0.0139561 0.1 0.0441449)
(0.0133878 0.1 0.0453733)
(0.0129556 0.1 0.0466559)
(0.0164038 0.1 0.0409251)
(0.015473 0.1 0.0419077)
(0.0146539 0.1 0.0429852)
(0.0197514 0.1 0.0386553)
(0.0185556 0.1 0.0392893)
(0.0174353 0.1 0.0400488)
(0.0223129 0.1 0.0377922)
(0.0210087 0.1 0.0381543)
(0.025 -0.1 -0.0125)
(0.0263515 -0.1 -0.0124267)
(0.0210087 -0.1 -0.0118457)
(0.0223129 -0.1 -0.0122078)
(0.0236485 -0.1 -0.0124267)
(0.0174353 -0.1 -0.00995116)
(0.0185556 -0.1 -0.0107107)
(0.0197514 -0.1 -0.0113447)
(0.0146539 -0.1 -0.00701484)
(0.015473 -0.1 -0.00809233)
(0.0164038 -0.1 -0.00907494)
(0.0129556 -0.1 -0.0033441)
(0.0133878 -0.1 -0.00462673)
(0.0139561 -0.1 -0.00585511)
(0.0125183 -0.1 0.000676736)
(0.0125183 -0.1 -0.000676736)
(0.0126647 -0.1 -0.00202228)
(0.0133878 -0.1 0.00462673)
(0.0129556 -0.1 0.0033441)
(0.0126647 -0.1 0.00202228)
(0.015473 -0.1 0.00809233)
(0.0146539 -0.1 0.00701484)
(0.0139561 -0.1 0.00585511)
(0.0185556 -0.1 0.0107107)
(0.0174353 -0.1 0.00995116)
(0.0164038 -0.1 0.00907494)
(0.0223129 -0.1 0.0122078)
(0.0210087 -0.1 0.0118457)
(0.0197514 -0.1 0.0113447)
(0.0263515 -0.1 0.0124267)
(0.025 -0.1 0.0125)
(0.0236485 -0.1 0.0124267)
(0.0302486 -0.1 0.0113447)
(0.0289913 -0.1 0.0118457)
(0.0276871 -0.1 0.0122078)
(0.0335962 -0.1 0.00907494)
(0.0325647 -0.1 0.00995116)
(0.0314444 -0.1 0.0107107)
(0.0360439 -0.1 0.00585511)
(0.0353461 -0.1 0.00701484)
(0.034527 -0.1 0.00809233)
(0.0373353 -0.1 0.00202228)
(0.0370444 -0.1 0.0033441)
(0.0366122 -0.1 0.00462673)
(0.0373353 -0.1 -0.00202228)
(0.0374817 -0.1 -0.000676736)
(0.0374817 -0.1 0.000676736)
(0.0360439 -0.1 -0.00585511)
(0.0366122 -0.1 -0.00462673)
(0.0370444 -0.1 -0.0033441)
(0.0335962 -0.1 -0.00907494)
(0.034527 -0.1 -0.00809233)
(0.0353461 -0.1 -0.00701484)
(0.0302486 -0.1 -0.0113447)
(0.0314444 -0.1 -0.0107107)
(0.0325647 -0.1 -0.00995116)
(0.0276871 -0.1 -0.0122078)
(0.0289913 -0.1 -0.0118457)
)


// edges:

116
(
(0 1)
(2 3)
(3 4)
(4 0)
(5 6)
(6 7)
(7 2)
(8 9)
(9 10)
(10 5)
(11 12)
(12 13)
(13 8)
(14 15)
(15 16)
(16 11)
(17 18)
(18 19)
(19 14)
(20 21)
(21 22)
(22 17)
(23 24)
(24 25)
(25 20)
(26 27)
(27 28)
(28 23)
(29 30)
(30 31)
(31 26)
(32 33)
(33 34)
(34 29)
(35 36)
(36 37)
(37 32)
(38 39)
(39 40)
(40 35)
(41 42)
(42 43)
(43 38)
(44 45)
(45 46)
(46 41)
(47 48)
(48 49)
(49 44)
(50 51)
(51 52)
(52 47)
(53 54)
(54 55)
(55 50)
(1 56)
(56 57)
(57 53)
(58 59)
(60 61)
(61 62)
(62 58)
(63 64)
(64 65)
(65 60)
(66 67)
(67 68)
(68 63)
(69 70)
(70 71)
(71 66)
(72 73)
(73 74)
(74 69)
(75 76)
(76 77)
(77 72)
(78 79)
(79 80)
(80 75)
(81 82)
(82 83)
(83 78)
(84 85)
(85 86)
(86 81)
(87 88)
(88 89)
(89 84)
(90 91)
(91 92)
(92 87)
(93 94)
(94 95)
(95 90)
(96 97)
(97 98)
(98 93)
(99 100)
(100 101)
(101 96)
(102 103)
(103 104)
(104 99)
(105 106)
(106 107)
(107 102)
(108 109)
(109 110)
(110 105)
(111 112)
(112 113)
(113 108)
(59 114)
(114 115)
(115 111)
)

// * * * * * * * * * * * * * * * * * * * * * * * * * * * * * * * * * * * * * //


// ************************************************************************* //
