/*--------------------------------*- C++ -*----------------------------------*\
| =========                 |                                                 |
| \\      /  F ield         | OpenFOAM: The Open Source CFD Toolbox           |
|  \\    /   O peration     | Version:  v2012                                 |
|   \\  /    A nd           | Website:  www.openfoam.com                      |
|    \\/     M anipulation  |                                                 |
\*---------------------------------------------------------------------------*/
FoamFile
{
    version     2.0;
    format      ascii;
    class       featureEdgeMesh;
    location    "constant/triSurface";
    object      reactor_all.eMesh;
}
// * * * * * * * * * * * * * * * * * * * * * * * * * * * * * * * * * * * * * //


// points:

150
(
(0.015 -0.0149912 0.00979081)
(0.015 -0.015 0.01)
(0.015 -0.0149912 0.0102092)
(0.015 -0.014965 0.0104169)
(0.015 -0.0149215 0.0106217)
(0.015 -0.0148609 0.0108222)
(0.015 -0.0147839 0.0110168)
(0.015 -0.0146908 0.0112044)
(0.015 -0.0145823 0.0113835)
(0.015 -0.0144592 0.0115529)
(0.015 -0.0143224 0.0117114)
(0.015 -0.0141728 0.0118579)
(0.015 -0.0140115 0.0119913)
(0.015 -0.0138396 0.0121108)
(0.015 -0.0136582 0.0122155)
(0.015 -0.0134688 0.0123047)
(0.015 -0.0132725 0.0123776)
(0.015 -0.0130709 0.0124339)
(0.015 -0.0128652 0.0124732)
(0.015 -0.012657 0.0124951)
(0.015 -0.0124476 0.0124994)
(0.015 -0.0122387 0.0124863)
(0.015 -0.0120315 0.0124557)
(0.015 -0.0118277 0.0124079)
(0.015 -0.0116286 0.0123432)
(0.015 -0.0114355 0.0122621)
(0.015 -0.01125 0.0121651)
(0.015 -0.0110732 0.0120529)
(0.015 -0.0109064 0.0119263)
(0.015 -0.0107508 0.0117862)
(0.015 -0.0106075 0.0116335)
(0.015 -0.0104775 0.0114695)
(0.015 -0.0103616 0.0112951)
(0.015 -0.0102607 0.0111116)
(0.015 -0.0101756 0.0109203)
(0.015 -0.0101067 0.0107226)
(0.015 -0.0100546 0.0105198)
(0.015 -0.0100197 0.0103133)
(0.015 -0.0100022 0.0101047)
(0.015 -0.0100022 0.00989531)
(0.015 -0.0100197 0.00968667)
(0.015 -0.0100546 0.00948022)
(0.015 -0.0101067 0.00927742)
(0.015 -0.0101756 0.00907969)
(0.015 -0.0102607 0.00888841)
(0.015 -0.0103616 0.00870493)
(0.015 -0.0104775 0.00853054)
(0.015 -0.0106075 0.00836645)
(0.015 -0.0107508 0.00821382)
(0.015 -0.0109064 0.00807372)
(0.015 -0.0110732 0.00794713)
(0.015 -0.01125 0.00783494)
(0.015 -0.0114355 0.00773793)
(0.015 -0.0116286 0.00765679)
(0.015 -0.0118277 0.00759209)
(0.015 -0.0120315 0.00754428)
(0.015 -0.0122387 0.00751369)
(0.015 -0.0124476 0.00750055)
(0.015 -0.012657 0.00750493)
(0.015 -0.0128652 0.00752682)
(0.015 -0.0130709 0.00756605)
(0.015 -0.0132725 0.00762236)
(0.015 -0.0134688 0.00769534)
(0.015 -0.0136582 0.00778449)
(0.015 -0.0138396 0.00788918)
(0.015 -0.0140115 0.00800867)
(0.015 -0.0141728 0.00814214)
(0.015 -0.0143224 0.00828863)
(0.015 -0.0144592 0.00844713)
(0.015 -0.0145823 0.00861652)
(0.015 -0.0146908 0.00879562)
(0.015 -0.0147839 0.00898316)
(0.015 -0.0148609 0.00917783)
(0.015 -0.0149215 0.00937827)
(0.015 -0.014965 0.00958308)
(-0.015 -0.0149912 0.000209195)
(-0.015 -0.015 0)
(-0.015 -0.0149912 -0.000209195)
(-0.015 -0.014965 -0.000416922)
(-0.015 -0.0149215 -0.000621725)
(-0.015 -0.0148609 -0.000822167)
(-0.015 -0.0147839 -0.00101684)
(-0.015 -0.0146908 -0.00120438)
(-0.015 -0.0145823 -0.00138348)
(-0.015 -0.0144592 -0.00155287)
(-0.015 -0.0143224 -0.00171137)
(-0.015 -0.0141728 -0.00185786)
(-0.015 -0.0140115 -0.00199133)
(-0.015 -0.0138396 -0.00211082)
(-0.015 -0.0136582 -0.00221551)
(-0.015 -0.0134688 -0.00230466)
(-0.015 -0.0132725 -0.00237764)
(-0.015 -0.0130709 -0.00243395)
(-0.015 -0.0128652 -0.00247318)
(-0.015 -0.012657 -0.00249507)
(-0.015 -0.0124476 -0.00249945)
(-0.015 -0.0122387 -0.00248631)
(-0.015 -0.0120315 -0.00245572)
(-0.015 -0.0118277 -0.00240791)
(-0.015 -0.0116286 -0.00234321)
(-0.015 -0.0114355 -0.00226207)
(-0.015 -0.01125 -0.00216506)
(-0.015 -0.0110732 -0.00205287)
(-0.015 -0.0109064 -0.00192628)
(-0.015 -0.0107508 -0.00178618)
(-0.015 -0.0106075 -0.00163355)
(-0.015 -0.0104775 -0.00146946)
(-0.015 -0.0103616 -0.00129507)
(-0.015 -0.0102607 -0.00111159)
(-0.015 -0.0101756 -0.000920311)
(-0.015 -0.0101067 -0.000722579)
(-0.015 -0.0100546 -0.000519779)
(-0.015 -0.0100197 -0.000313333)
(-0.015 -0.0100022 -0.000104689)
(-0.015 -0.0100022 0.000104689)
(-0.015 -0.0100197 0.000313333)
(-0.015 -0.0100546 0.000519779)
(-0.015 -0.0101067 0.000722579)
(-0.015 -0.0101756 0.000920311)
(-0.015 -0.0102607 0.00111159)
(-0.015 -0.0103616 0.00129507)
(-0.015 -0.0104775 0.00146946)
(-0.015 -0.0106075 0.00163355)
(-0.015 -0.0107508 0.00178618)
(-0.015 -0.0109064 0.00192628)
(-0.015 -0.0110732 0.00205287)
(-0.015 -0.01125 0.00216506)
(-0.015 -0.0114355 0.00226207)
(-0.015 -0.0116286 0.00234321)
(-0.015 -0.0118277 0.00240791)
(-0.015 -0.0120315 0.00245572)
(-0.015 -0.0122387 0.00248631)
(-0.015 -0.0124476 0.00249945)
(-0.015 -0.012657 0.00249507)
(-0.015 -0.0128652 0.00247318)
(-0.015 -0.0130709 0.00243395)
(-0.015 -0.0132725 0.00237764)
(-0.015 -0.0134688 0.00230466)
(-0.015 -0.0136582 0.00221551)
(-0.015 -0.0138396 0.00211082)
(-0.015 -0.0140115 0.00199133)
(-0.015 -0.0141728 0.00185786)
(-0.015 -0.0143224 0.00171137)
(-0.015 -0.0144592 0.00155287)
(-0.015 -0.0145823 0.00138348)
(-0.015 -0.0146908 0.00120438)
(-0.015 -0.0147839 0.00101684)
(-0.015 -0.0148609 0.000822167)
(-0.015 -0.0149215 0.000621725)
(-0.015 -0.014965 0.000416922)
)


// edges:

150
(
(0 1)
(1 2)
(2 3)
(3 4)
(4 5)
(5 6)
(6 7)
(7 8)
(8 9)
(9 10)
(10 11)
(11 12)
(12 13)
(13 14)
(14 15)
(15 16)
(16 17)
(17 18)
(18 19)
(19 20)
(20 21)
(21 22)
(22 23)
(23 24)
(24 25)
(25 26)
(26 27)
(27 28)
(28 29)
(29 30)
(30 31)
(31 32)
(32 33)
(33 34)
(34 35)
(35 36)
(36 37)
(37 38)
(38 39)
(39 40)
(40 41)
(41 42)
(42 43)
(43 44)
(44 45)
(45 46)
(46 47)
(47 48)
(48 49)
(49 50)
(50 51)
(51 52)
(52 53)
(53 54)
(54 55)
(55 56)
(56 57)
(57 58)
(58 59)
(59 60)
(60 61)
(61 62)
(62 63)
(63 64)
(64 65)
(65 66)
(66 67)
(67 68)
(68 69)
(69 70)
(70 71)
(71 72)
(72 73)
(73 74)
(74 0)
(75 76)
(76 77)
(77 78)
(78 79)
(79 80)
(80 81)
(81 82)
(82 83)
(83 84)
(84 85)
(85 86)
(86 87)
(87 88)
(88 89)
(89 90)
(90 91)
(91 92)
(92 93)
(93 94)
(94 95)
(95 96)
(96 97)
(97 98)
(98 99)
(99 100)
(100 101)
(101 102)
(102 103)
(103 104)
(104 105)
(105 106)
(106 107)
(107 108)
(108 109)
(109 110)
(110 111)
(111 112)
(112 113)
(113 114)
(114 115)
(115 116)
(116 117)
(117 118)
(118 119)
(119 120)
(120 121)
(121 122)
(122 123)
(123 124)
(124 125)
(125 126)
(126 127)
(127 128)
(128 129)
(129 130)
(130 131)
(131 132)
(132 133)
(133 134)
(134 135)
(135 136)
(136 137)
(137 138)
(138 139)
(139 140)
(140 141)
(141 142)
(142 143)
(143 144)
(144 145)
(145 146)
(146 147)
(147 148)
(148 149)
(149 75)
)

// * * * * * * * * * * * * * * * * * * * * * * * * * * * * * * * * * * * * * //


// ************************************************************************* //
