/*--------------------------------*- C++ -*----------------------------------*\
| =========                 |                                                 |
| \\      /  F ield         | OpenFOAM: The Open Source CFD Toolbox           |
|  \\    /   O peration     | Version:  v2006                                 |
|   \\  /    A nd           | Website:  www.openfoam.com                      |
|    \\/     M anipulation  |                                                 |
\*---------------------------------------------------------------------------*/
FoamFile
{
    version     2.0;
    format      ascii;
    class       volVectorField;
    object      U;
}
// * * * * * * * * * * * * * * * * * * * * * * * * * * * * * * * * * * * * * //

dimensions      [0 1 -1 0 0 0 0];

internalField   uniform (0 0 0);

boundaryField
{
    
    inlet
    {
		type				groovyBC;
		variables (
			"freq=5;"
			"amp=0.002;"
		);
		valueExpression		"vector (0.01+(2*pi*freq*amp*sin(2*pi*freq*time())),0,0)";
        value uniform      (0.01 0 0);

    }
    outlet
    {
        type            zeroGradient;
    }
    wall
    {
		type		noSlip;
    }

}
// ************************************************************************* //
