/*--------------------------------*- C++ -*----------------------------------*\
| =========                 |                                                 |
| \\      /  F ield         | OpenFOAM: The Open Source CFD Toolbox           |
|  \\    /   O peration     | Version:  v1806                                 |
|   \\  /    A nd           | Web:      www.OpenFOAM.com                      |
|    \\/     M anipulation  |                                                 |
\*---------------------------------------------------------------------------*/
FoamFile
{
    version     2.0;
    format      ascii;
    class       dictionary;
    object      blockMeshDict;
}
// * * * * * * * * * * * * * * * * * * * * * * * * * * * * * * * * * * * * * //

scale   1;

// the updated blockMesh (openfoam.com) fails on some meshes with default options;
// it reports report inconsistent number of faces although the mesh is still OK.
// this happens where two 'wedge' blocks with different numbers of cells join in the same
// point/edge.
mergeType points;
checkFaceCorrespondence false;



vertices
(
    
    (-0.01185897 -0.01242188 -0.00000000) // 0
    (-0.01185897 -0.01342156 0.00004056) // 1
    (-0.01217949 -0.01342156 0.00004056) // 2
    (-0.01217949 -0.01242188 0.00000000) // 3
    (-0.01185897 -0.01242188 -0.00098438) // 4
    (-0.01185897 -0.01317968 -0.00071883) // 5
    (-0.01217949 -0.01317968 -0.00071883) // 6
    (-0.01217949 -0.01242188 -0.00098437) // 7
    (-0.01153846 -0.01242188 -0.00000000) // 8
    (-0.01153846 -0.01342156 0.00004056) // 9
    (-0.01153846 -0.01242188 -0.00098438) // 10
    (-0.01153846 -0.01317968 -0.00071883) // 11
    (-0.01121795 -0.01242188 0.00000000) // 12
    (-0.01121795 -0.01342156 0.00004056) // 13
    (-0.01121795 -0.01242188 -0.00098437) // 14
    (-0.01121795 -0.01317968 -0.00071883) // 15
    (-0.01089744 -0.01242188 -0.00000000) // 16
    (-0.01089744 -0.01342156 0.00004056) // 17
    (-0.01089744 -0.01242188 -0.00098438) // 18
    (-0.01089744 -0.01317968 -0.00071883) // 19
    (-0.01057692 -0.01242188 0.00000000) // 20
    (-0.01057692 -0.01342156 0.00004056) // 21
    (-0.01057692 -0.01242188 -0.00098437) // 22
    (-0.01057692 -0.01317968 -0.00071883) // 23
    (-0.01025641 -0.01242188 -0.00000000) // 24
    (-0.01025641 -0.01342156 0.00004056) // 25
    (-0.01025641 -0.01242188 -0.00098438) // 26
    (-0.01025641 -0.01317968 -0.00071883) // 27
    (-0.00993590 -0.01242188 0.00000000) // 28
    (-0.00993590 -0.01342156 0.00004056) // 29
    (-0.00993590 -0.01242188 -0.00098437) // 30
    (-0.00993590 -0.01317968 -0.00071883) // 31
    (-0.00961538 -0.01242188 -0.00000000) // 32
    (-0.00961538 -0.01342156 0.00004056) // 33
    (-0.00961538 -0.01242188 -0.00098438) // 34
    (-0.00961538 -0.01317968 -0.00071883) // 35
    (-0.00929487 -0.01242188 -0.00000000) // 36
    (-0.00929487 -0.01342156 0.00004056) // 37
    (-0.00929487 -0.01242188 -0.00098438) // 38
    (-0.00929487 -0.01317968 -0.00071883) // 39
    (-0.00897436 -0.01242188 0.00000000) // 40
    (-0.00897436 -0.01342156 0.00004056) // 41
    (-0.00897436 -0.01242188 -0.00098437) // 42
    (-0.00897436 -0.01317968 -0.00071883) // 43
    (-0.00865385 -0.01242188 -0.00000000) // 44
    (-0.00865385 -0.01342156 0.00004056) // 45
    (-0.00865385 -0.01242188 -0.00098438) // 46
    (-0.00865385 -0.01317968 -0.00071883) // 47
    (-0.00833333 -0.01242188 0.00000000) // 48
    (-0.00833333 -0.01342156 0.00004056) // 49
    (-0.00833333 -0.01242188 -0.00098437) // 50
    (-0.00833333 -0.01317968 -0.00071883) // 51
    (-0.00801282 -0.01242188 0.00000000) // 52
    (-0.00801282 -0.01342156 0.00004056) // 53
    (-0.00801282 -0.01242188 -0.00098437) // 54
    (-0.00801282 -0.01317968 -0.00071883) // 55
    (-0.00769231 -0.01242188 -0.00000000) // 56
    (-0.00769231 -0.01342156 0.00004056) // 57
    (-0.00769231 -0.01242188 -0.00098438) // 58
    (-0.00769231 -0.01317968 -0.00071883) // 59
    (-0.00737179 -0.01242188 -0.00000000) // 60
    (-0.00737179 -0.01342156 0.00004056) // 61
    (-0.00737179 -0.01242188 -0.00098438) // 62
    (-0.00737179 -0.01317968 -0.00071883) // 63
    (-0.00705128 -0.01242188 -0.00000000) // 64
    (-0.00705128 -0.01342156 0.00004056) // 65
    (-0.00705128 -0.01242188 -0.00098438) // 66
    (-0.00705128 -0.01317968 -0.00071883) // 67
    (-0.00673077 -0.01242188 -0.00000000) // 68
    (-0.00673077 -0.01342156 0.00004056) // 69
    (-0.00673077 -0.01242188 -0.00098438) // 70
    (-0.00673077 -0.01317968 -0.00071883) // 71
    (-0.00641026 -0.01242188 -0.00000000) // 72
    (-0.00641026 -0.01342156 0.00004056) // 73
    (-0.00641026 -0.01242188 -0.00098438) // 74
    (-0.00641026 -0.01317968 -0.00071883) // 75
    (-0.00608974 -0.01242188 -0.00000000) // 76
    (-0.00608974 -0.01342156 0.00004056) // 77
    (-0.00608974 -0.01242188 -0.00098438) // 78
    (-0.00608974 -0.01317968 -0.00071883) // 79
    (-0.00576923 -0.01242188 -0.00000000) // 80
    (-0.00576923 -0.01342156 0.00004056) // 81
    (-0.00576923 -0.01242188 -0.00098438) // 82
    (-0.00576923 -0.01317968 -0.00071883) // 83
    (-0.00544872 -0.01242188 0.00000271) // 84
    (-0.00544906 -0.01342156 0.00004327) // 85
    (-0.00544039 -0.01242188 -0.00098163) // 86
    (-0.00544263 -0.01317968 -0.00071609) // 87
    (-0.00512821 -0.01242188 0.00000814) // 88
    (-0.00512889 -0.01342156 0.00004869) // 89
    (-0.00511154 -0.01242188 -0.00097609) // 90
    (-0.00511604 -0.01317968 -0.00071059) // 91
    (-0.00480769 -0.01242188 0.00001628) // 92
    (-0.00480872 -0.01342156 0.00005682) // 93
    (-0.00478270 -0.01242188 -0.00096778) // 94
    (-0.00478944 -0.01317968 -0.00070232) // 95
    (-0.00448718 -0.01242188 0.00002713) // 96
    (-0.00448855 -0.01342156 0.00006766) // 97
    (-0.00445387 -0.01242188 -0.00095668) // 98
    (-0.00446285 -0.01317968 -0.00069129) // 99
    (-0.00416667 -0.01242188 0.00004070) // 100
    (-0.00416838 -0.01342156 0.00008122) // 101
    (-0.00412504 -0.01242188 -0.00094280) // 102
    (-0.00413627 -0.01317968 -0.00067749) // 103
    (-0.00384615 -0.01242188 0.00005698) // 104
    (-0.00384821 -0.01342156 0.00009748) // 105
    (-0.00379622 -0.01242188 -0.00092613) // 106
    (-0.00380969 -0.01317968 -0.00066093) // 107
    (-0.00352564 -0.01242188 0.00007597) // 108
    (-0.00352804 -0.01342156 0.00011645) // 109
    (-0.00346741 -0.01242188 -0.00090668) // 110
    (-0.00348312 -0.01317968 -0.00064160) // 111
    (-0.00320513 -0.01242188 0.00009768) // 112
    (-0.00320787 -0.01342156 0.00013814) // 113
    (-0.00313862 -0.01242188 -0.00088445) // 114
    (-0.00315656 -0.01317968 -0.00061952) // 115
    (-0.00288462 -0.01242188 0.00012209) // 116
    (-0.00288770 -0.01342156 0.00016253) // 117
    (-0.00280984 -0.01242188 -0.00085944) // 118
    (-0.00283001 -0.01317968 -0.00059466) // 119
    (-0.00256410 -0.01242188 0.00014923) // 120
    (-0.00256752 -0.01342156 0.00018964) // 121
    (-0.00248107 -0.01242188 -0.00083164) // 122
    (-0.00250347 -0.01317968 -0.00056705) // 123
    (-0.00224359 -0.01242188 0.00017907) // 124
    (-0.00224735 -0.01342156 0.00021945) // 125
    (-0.00215232 -0.01242188 -0.00080106) // 126
    (-0.00217694 -0.01317968 -0.00053667) // 127
    (-0.00192308 -0.01242188 0.00021163) // 128
    (-0.00192718 -0.01342156 0.00025198) // 129
    (-0.00182359 -0.01242188 -0.00076770) // 130
    (-0.00185043 -0.01317968 -0.00050352) // 131
    (-0.00160256 -0.01242188 0.00024690) // 132
    (-0.00160700 -0.01342156 0.00028721) // 133
    (-0.00149489 -0.01242188 -0.00073157) // 134
    (-0.00152393 -0.01317968 -0.00046762) // 135
    (-0.00128205 -0.01242188 0.00028489) // 136
    (-0.00128682 -0.01342156 0.00032516) // 137
    (-0.00116620 -0.01242188 -0.00069265) // 138
    (-0.00119745 -0.01317968 -0.00042895) // 139
    (-0.00096154 -0.01242188 0.00032559) // 140
    (-0.00096665 -0.01342156 0.00036582) // 141
    (-0.00083754 -0.01242188 -0.00065095) // 142
    (-0.00087099 -0.01317968 -0.00038752) // 143
    (-0.00064103 -0.01242188 0.00036900) // 144
    (-0.00064647 -0.01342156 0.00040919) // 145
    (-0.00050890 -0.01242188 -0.00060647) // 146
    (-0.00054455 -0.01317968 -0.00034333) // 147
    (-0.00032051 -0.01242188 0.00041512) // 148
    (-0.00032629 -0.01342156 0.00045526) // 149
    (-0.00018030 -0.01242188 -0.00055922) // 150
    (-0.00021812 -0.01317968 -0.00029638) // 151
    (0.00000000 -0.01242188 0.00046396) // 152
    (-0.00000611 -0.01342156 0.00050405) // 153
    (0.00014828 -0.01242188 -0.00050918) // 154
    (0.00010828 -0.01317968 -0.00024667) // 155
    (0.00063598 -0.01250035 0.00057562) // 156
    (0.00050665 -0.01349166 0.00061558) // 157
    (0.00080370 -0.01252105 -0.00039414) // 158
    (0.00066565 -0.01326757 -0.00013254) // 159
    (0.00127948 -0.01254239 0.00069984) // 160
    (0.00120666 -0.01353945 0.00073966) // 161
    (0.00146528 -0.01255453 -0.00026677) // 162
    (0.00136576 -0.01330745 -0.00000602) // 163
    (0.00192825 -0.01254747 0.00083673) // 164
    (0.00191205 -0.01354706 0.00087641) // 165
    (0.00213147 -0.01254906 -0.00012644) // 166
    (0.00207071 -0.01330642 0.00013338) // 167
    (0.00257998 -0.01251521 0.00098641) // 168
    (0.00262034 -0.01351413 0.00102594) // 169
    (0.00279979 -0.01250433 0.00002695) // 170
    (0.00277796 -0.01326415 0.00028577) // 171
    (0.00323236 -0.01244539 0.00114898) // 172
    (0.00332905 -0.01344044 0.00118835) // 173
    (0.00346776 -0.01242019 0.00019350) // 174
    (0.00348491 -0.01318049 0.00045125) // 175
    (0.00388306 -0.01233791 0.00132214) // 176
    (0.00403581 -0.01332592 0.00136136) // 177
    (0.00412969 -0.01229718 0.00037003) // 178
    (0.00418665 -0.01305584 0.00062687) // 179
    (0.00452975 -0.01219285 0.00149476) // 180
    (0.00473858 -0.01317054 0.00153400) // 181
    (0.00477185 -0.01213855 0.00054216) // 182
    (0.00487240 -0.01289263 0.00079913) // 183
    (0.00517012 -0.01201042 0.00166539) // 184
    (0.00543433 -0.01297462 0.00170467) // 185
    (0.00540513 -0.01194347 0.00071182) // 186
    (0.00554936 -0.01269034 0.00096905) // 187
    (0.00580184 -0.01179099 0.00183397) // 188
    (0.00612050 -0.01273858 0.00187330) // 189
    (0.00602915 -0.01171203 0.00087946) // 190
    (0.00621649 -0.01244919 0.00113694) // 191
    (0.00642265 -0.01153506 0.00200046) // 192
    (0.00679465 -0.01246301 0.00203982) // 193
    (0.00664166 -0.01144477 0.00104501) // 194
    (0.00687141 -0.01216974 0.00130275) // 195
    (0.00703030 -0.01124329 0.00216480) // 196
    (0.00745436 -0.01214863 0.00220420) // 197
    (0.00724049 -0.01114236 0.00120844) // 198
    (0.00751181 -0.01185272 0.00146642) // 199
    (0.00762258 -0.01091647 0.00232694) // 200
    (0.00809728 -0.01179632 0.00236638) // 201
    (0.00782347 -0.01080562 0.00136968) // 202
    (0.00813540 -0.01149903 0.00162791) // 203
    (0.00819735 -0.01055554 0.00248683) // 204
    (0.00872110 -0.01140710 0.00252631) // 205
    (0.00838852 -0.01043550 0.00152869) // 206
    (0.00873995 -0.01110965 0.00178716) // 207
    (0.00875252 -0.01016158 0.00264444) // 208
    (0.00932360 -0.01098214 0.00268395) // 209
    (0.00893359 -0.01003309 0.00168543) // 210
    (0.00932330 -0.01068576 0.00194413) // 211
    (0.00928609 -0.00973577 0.00279970) // 212
    (0.00990262 -0.01052275 0.00283925) // 213
    (0.00945673 -0.00959959 0.00183984) // 214
    (0.00988339 -0.01022864 0.00209877) // 215
    (0.00979610 -0.00927945 0.00295259) // 216
    (0.01045609 -0.01003037 0.00299217) // 217
    (0.00995605 -0.00913635 0.00199189) // 218
    (0.01041820 -0.00973971 0.00225105) // 219
    (0.01028072 -0.00879407 0.00310305) // 220
    (0.01098203 -0.00950655 0.00314267) // 221
    (0.01042975 -0.00864480 0.00214154) // 222
    (0.01092583 -0.00922050 0.00240092) // 223
    (0.01073819 -0.00828118 0.00325106) // 224
    (0.01147855 -0.00895298 0.00329071) // 225
    (0.01087614 -0.00812652 0.00228875) // 226
    (0.01140446 -0.00867267 0.00254834) // 227
    (0.01116686 -0.00774246 0.00339657) // 228
    (0.01194390 -0.00837148 0.00343625) // 229
    (0.01129361 -0.00758317 0.00243347) // 230
    (0.01185241 -0.00809799 0.00269328) // 231
    (0.01156519 -0.00717967 0.00353955) // 232
    (0.01237642 -0.00776393 0.00357927) // 233
    (0.01168066 -0.00701652 0.00257569) // 234
    (0.01226807 -0.00749833 0.00283570) // 235
    (0.01193174 -0.00659469 0.00367896) // 236
    (0.01277460 -0.00713231 0.00371871) // 237
    (0.01203520 -0.00642958 0.00271406) // 238
    (0.01264945 -0.00687650 0.00297435) // 239
    (0.01226521 -0.00598947 0.00381478) // 240
    (0.01313701 -0.00647875 0.00385458) // 241
    (0.01235683 -0.00582319 0.00284889) // 242
    (0.01299584 -0.00623375 0.00310944) // 243
    (0.01256440 -0.00536604 0.00394703) // 244
    (0.01346238 -0.00580545 0.00398686) // 245
    (0.01264441 -0.00519934 0.00298017) // 246
    (0.01330603 -0.00557220 0.00324099) // 247
    (0.01282828 -0.00472651 0.00407569) // 248
    (0.01374957 -0.00511466 0.00411557) // 249
    (0.01289693 -0.00456013 0.00310791) // 250
    (0.01357893 -0.00489405 0.00336898) // 251
    (0.01305592 -0.00407304 0.00420078) // 252
    (0.01399760 -0.00440871 0.00424069) // 253
    (0.01311352 -0.00390768 0.00323211) // 254
    (0.01381362 -0.00420158 0.00349341) // 255
    (0.01324654 -0.00340784 0.00432229) // 256
    (0.01420562 -0.00368998 0.00436224) // 257
    (0.01329344 -0.00324418 0.00335275) // 258
    (0.01400927 -0.00349709 0.00361429) // 259
    (0.01339950 -0.00273320 0.00444022) // 260
    (0.01437294 -0.00296089 0.00448020) // 261
    (0.01343608 -0.00257187 0.00346985) // 262
    (0.01416526 -0.00278295 0.00373161) // 263
    (0.01351431 -0.00205140 0.00455458) // 264
    (0.01449902 -0.00222393 0.00459459) // 265
    (0.01354098 -0.00189300 0.00358340) // 266
    (0.01428108 -0.00206157 0.00384538) // 267
    (0.01359062 -0.00136477 0.00466535) // 268
    (0.01458348 -0.00148158 0.00470540) // 269
    (0.01360784 -0.00120988 0.00369339) // 270
    (0.01435636 -0.00133537 0.00395559) // 271
    (0.01362823 -0.00067566 0.00477255) // 272
    (0.01462610 -0.00073636 0.00481262) // 273
    (0.01363647 -0.00052480 0.00379984) // 274
    (0.01439093 -0.00060679 0.00406223) // 275
    (0.01362709 0.00001359 0.00487617) // 276
    (0.01462679 0.00000921 0.00491627) // 277
    (0.01362685 0.00015993 0.00390273) // 278
    (0.01438472 0.00012170 0.00416532) // 279
    (0.01358730 0.00070061 0.00497620) // 280
    (0.01458565 0.00075260 0.00501634) // 281
    (0.01357911 0.00084198 0.00400207) // 282
    (0.01433786 0.00084767 0.00426485) // 283
    (0.01350909 0.00138309 0.00507266) // 284
    (0.01450292 0.00149130 0.00511283) // 285
    (0.01349351 0.00151908 0.00409785) // 286
    (0.01425059 0.00156867 0.00436082) // 287
    (0.01339287 0.00205869 0.00516555) // 288
    (0.01437901 0.00222281 0.00520574) // 289
    (0.01337046 0.00218894 0.00419008) // 290
    (0.01412334 0.00228229 0.00445322) // 291
    (0.01323916 0.00272514 0.00525485) // 292
    (0.01421446 0.00294469 0.00529506) // 293
    (0.01321052 0.00284933 0.00427876) // 294
    (0.01395667 0.00298613 0.00454207) // 295
    (0.01304865 0.00338019 0.00534057) // 296
    (0.01400998 0.00365450 0.00538081) // 297
    (0.01301438 0.00349804 0.00436388) // 298
    (0.01375128 0.00367787 0.00462735) // 299
    (0.01282217 0.00402163 0.00542272) // 300
    (0.01376644 0.00434989 0.00546298) // 301
    (0.01278287 0.00413291 0.00444545) // 302
    (0.01350805 0.00435520 0.00470907) // 303
    (0.01256066 0.00464733 0.00550129) // 304
    (0.01348483 0.00502853 0.00554157) // 305
    (0.01251697 0.00475186 0.00452345) // 306
    (0.01322795 0.00501589 0.00478723) // 307
    (0.01226521 0.00525522 0.00557628) // 308
    (0.01316629 0.00568819 0.00561659) // 309
    (0.01221776 0.00535286 0.00459791) // 310
    (0.01291214 0.00565777 0.00486183) // 311
    (0.01193706 0.00584330 0.00564769) // 312
    (0.01281212 0.00632670 0.00568802) // 313
    (0.01188648 0.00593394 0.00466880) // 314
    (0.01256188 0.00627876 0.00493286) // 315
    (0.01157754 0.00640965 0.00571552) // 316
    (0.01242372 0.00694198 0.00575587) // 317
    (0.01152446 0.00649326 0.00473614) // 318
    (0.01217856 0.00687684 0.00500033) // 319
    (0.01118811 0.00695244 0.00577977) // 320
    (0.01200263 0.00753205 0.00582014) // 321
    (0.01113317 0.00702901 0.00479992) // 322
    (0.01176372 0.00745012 0.00506424) // 323
    (0.01077034 0.00746995 0.00584045) // 324
    (0.01155051 0.00809502 0.00588084) // 325
    (0.01071416 0.00753953 0.00486014) // 326
    (0.01131897 0.00799677 0.00512459) // 327
    (0.01032591 0.00796055 0.00589754) // 328
    (0.01106915 0.00862912 0.00593795) // 329
    (0.01026912 0.00802324 0.00491681) // 330
    (0.01084607 0.00851510 0.00518137) // 331
    (0.00985661 0.00842273 0.00595106) // 332
    (0.01056041 0.00913270 0.00599148) // 333
    (0.00979981 0.00847867 0.00496992) // 334
    (0.01034687 0.00900351 0.00523459) // 335
    (0.00936429 0.00885510 0.00600100) // 336
    (0.01002629 0.00960421 0.00604144) // 337
    (0.00930808 0.00890447 0.00501947) // 338
    (0.00982331 0.00946055 0.00528425) // 339
    (0.00885092 0.00925639 0.00604736) // 340
    (0.00946884 0.01004224 0.00608781) // 341
    (0.00879588 0.00929942 0.00506547) // 342
    (0.00927742 0.00988486 0.00533034) // 343
    (0.00831850 0.00962546 0.00609014) // 344
    (0.00889023 0.01044553 0.00613061) // 345
    (0.00826519 0.00966242 0.00510791) // 346
    (0.00871130 0.01027525 0.00537287) // 347
    (0.00776915 0.00996130 0.00612935) // 348
    (0.00829268 0.01081295 0.00616983) // 349
    (0.00771811 0.00999250 0.00514679) // 350
    (0.00812714 0.01063065 0.00541184) // 351
    (0.00720501 0.01026303 0.00616497) // 352
    (0.00767849 0.01114349 0.00620546) // 353
    (0.00715675 0.01028884 0.00518212) // 354
    (0.00752718 0.01095011 0.00544725) // 355
    (0.00662829 0.01052993 0.00619702) // 356
    (0.00705000 0.01143632 0.00623752) // 357
    (0.00658330 0.01055075 0.00521389) // 358
    (0.00691371 0.01123287 0.00547910) // 359
    (0.00604122 0.01076141 0.00622548) // 360
    (0.00640962 0.01169075 0.00626600) // 361
    (0.00599995 0.01077768 0.00524211) // 362
    (0.00628906 0.01147828 0.00550738) // 363
    (0.00544608 0.01095703 0.00625037) // 364
    (0.00575977 0.01190623 0.00629090) // 365
    (0.00540895 0.01096923 0.00526677) // 366
    (0.00565560 0.01168586 0.00553211) // 367
    (0.00484516 0.01111649 0.00627168) // 368
    (0.00510291 0.01208238 0.00631222) // 369
    (0.00481256 0.01112514 0.00528789) // 370
    (0.00501573 0.01185527 0.00555327) // 371
    (0.00424077 0.01123966 0.00628942) // 372
    (0.00444153 0.01221898 0.00632996) // 373
    (0.00421305 0.01124531 0.00530545) // 374
    (0.00437185 0.01198633 0.00557088) // 375
    (0.00363521 0.01132653 0.00630357) // 376
    (0.00377810 0.01231596 0.00634412) // 377
    (0.00361267 0.01132977 0.00531946) // 378
    (0.00372637 0.01207902 0.00558493) // 379
    (0.00303078 0.01137727 0.00631415) // 380
    (0.00311512 0.01237340 0.00635469) // 381
    (0.00301369 0.01137871 0.00532992) // 382
    (0.00308169 0.01213348 0.00559542) // 383
    (0.00242978 0.01139218 0.00632114) // 384
    (0.00245504 0.01239155 0.00636169) // 385
    (0.00241833 0.01139247 0.00533683) // 386
    (0.00244021 0.01214997 0.00560236) // 387
    (0.00183445 0.01137171 0.00632456) // 388
    (0.00180032 0.01237082 0.00636511) // 389
    (0.00182880 0.01137152 0.00534020) // 390
    (0.00180428 0.01212893 0.00560574) // 391
    (0.00124701 0.01131646 0.00632440) // 392
    (0.00115338 0.01231175 0.00636495) // 393
    (0.00124728 0.01131648 0.00534002) // 394
    (0.00117624 0.01207095 0.00560557) // 395
    (0.00066964 0.01122716 0.00632066) // 396
    (0.00051658 0.01221506 0.00636121) // 397
    (0.00067586 0.01122812 0.00533630) // 398
    (0.00055836 0.01197677 0.00560184) // 399
    (0.00010445 0.01110470 0.00631334) // 400
    (-0.00010774 0.01208161 0.00635389) // 401
    (0.00011662 0.01110734 0.00532905) // 402
    (-0.00004713 0.01184725 0.00559457) // 403
    (-0.00044650 0.01095009 0.00630245) // 404
    (-0.00071734 0.01191239 0.00634299) // 405
    (-0.00042846 0.01095516 0.00531825) // 406
    (-0.00063807 0.01168342 0.00558374) // 407
    (-0.00098123 0.01076449 0.00628797) // 408
    (-0.00131001 0.01170856 0.00632851) // 409
    (-0.00095746 0.01077274 0.00530392) // 410
    (-0.00121236 0.01148642 0.00556937) // 411
    (-0.00149784 0.01054916 0.00626992) // 412
    (-0.00188365 0.01147140 0.00631045) // 413
    (-0.00146855 0.01056137 0.00528605) // 414
    (-0.00176800 0.01125756 0.00555146) // 415
    (-0.00199452 0.01030551 0.00624829) // 416
    (-0.00243623 0.01120232 0.00628881) // 417
    (-0.00195999 0.01032245 0.00526466) // 418
    (-0.00230306 0.01099823 0.00553000) // 419
    (-0.00246956 0.01003504 0.00622307) // 420
    (-0.00296581 0.01090286 0.00626359) // 421
    (-0.00243015 0.01005748 0.00523974) // 422
    (-0.00281573 0.01070998 0.00550500) // 423
    (-0.00292134 0.00973938 0.00619429) // 424
    (-0.00347057 0.01057469 0.00623478) // 425
    (-0.00287749 0.00976808 0.00521131) // 426
    (-0.00330428 0.01039444 0.00547647) // 427
    (-0.00334839 0.00942025 0.00616192) // 428
    (-0.00394878 0.01021957 0.00620240) // 429
    (-0.00330060 0.00945596 0.00517935) // 430
    (-0.00376713 0.01005336 0.00544441) // 431
    (-0.00374931 0.00907947 0.00612597) // 432
    (-0.00439886 0.00983939 0.00616643) // 433
    (-0.00369819 0.00912292 0.00514389) // 434
    (-0.00420277 0.00968861 0.00540881) // 435
    (-0.00412286 0.00871895 0.00608645) // 436
    (-0.00481931 0.00943612 0.00612689) // 437
    (-0.00406909 0.00877084 0.00510491) // 438
    (-0.00460986 0.00930211 0.00536969) // 439
    (-0.00446791 0.00834066 0.00604334) // 440
    (-0.00520879 0.00901184 0.00608376) // 441
    (-0.00441226 0.00840166 0.00506244) // 442
    (-0.00498716 0.00889590 0.00532704) // 443
    (-0.00478348 0.00794666 0.00599666) // 444
    (-0.00556608 0.00856869 0.00603705) // 445
    (-0.00472681 0.00801741 0.00501647) // 446
    (-0.00533358 0.00847206 0.00528088) // 447
    (-0.00506873 0.00753906 0.00594640) // 448
    (-0.00589011 0.00810892 0.00598675) // 449
    (-0.00501200 0.00762013 0.00496701) // 450
    (-0.00564817 0.00803277 0.00523121) // 451
    (-0.00532330 0.00712052 0.00589321) // 452
    (-0.00617969 0.00763627 0.00593353) // 453
    (-0.00526809 0.00721130 0.00491459) // 454
    (-0.00593043 0.00758061 0.00517858) // 455
    (-0.00555069 0.00669789 0.00584387) // 456
    (-0.00643301 0.00716790 0.00588422) // 457
    (-0.00550299 0.00678654 0.00486466) // 458
    (-0.00618321 0.00712169 0.00512881) // 459
    (-0.00575236 0.00627396 0.00580019) // 460
    (-0.00665672 0.00670003 0.00584058) // 461
    (-0.00571319 0.00635631 0.00482005) // 462
    (-0.00640807 0.00665965 0.00508445) // 463
    (-0.00592895 0.00585005 0.00576217) // 464
    (-0.00685306 0.00623138 0.00580259) // 465
    (-0.00589771 0.00592504 0.00478115) // 466
    (-0.00660568 0.00619622 0.00504579) // 467
    (-0.00608113 0.00542743 0.00572980) // 468
    (-0.00702269 0.00576337 0.00577025) // 469
    (-0.00605716 0.00549399 0.00474797) // 470
    (-0.00677662 0.00573277 0.00501283) // 471
    (-0.00620963 0.00500727 0.00570309) // 472
    (-0.00716633 0.00529730 0.00574357) // 473
    (-0.00619216 0.00506440 0.00472053) // 474
    (-0.00692155 0.00527063 0.00498558) // 475
    (-0.00631525 0.00459069 0.00568204) // 476
    (-0.00728477 0.00483443 0.00572254) // 477
    (-0.00630341 0.00463738 0.00469884) // 478
    (-0.00704117 0.00481101 0.00496406) // 479
    (-0.00639878 0.00417870 0.00566664) // 480
    (-0.00737883 0.00437592 0.00570717) // 481
    (-0.00639162 0.00421402 0.00468292) // 482
    (-0.00713625 0.00435509 0.00494829) // 483
    (-0.00646110 0.00377227 0.00565690) // 484
    (-0.00744939 0.00392283 0.00569744) // 485
    (-0.00645757 0.00379531 0.00467280) // 486
    (-0.00720758 0.00390395 0.00493826) // 487
    (-0.00650309 0.00337224 0.00565281) // 488
    (-0.00749736 0.00347618 0.00569336) // 489
    (-0.00650205 0.00338218 0.00466849) // 490
    (-0.00725600 0.00345860 0.00493401) // 491
    (-0.00652564 0.00297942 0.00565438) // 492
    (-0.00752368 0.00303688 0.00569494) // 493
    (-0.00652587 0.00297549 0.00467001) // 494
    (-0.00728237 0.00301999 0.00493555) // 495
    (-0.00652969 0.00259450 0.00566161) // 496
    (-0.00752931 0.00260576 0.00570216) // 497
    (-0.00652988 0.00257602 0.00467741) // 498
    (-0.00728759 0.00258896 0.00494290) // 499
    (-0.00651615 0.00221812 0.00567449) // 500
    (-0.00751524 0.00218356 0.00571502) // 501
    (-0.00651494 0.00218449 0.00469069) // 502
    (-0.00727258 0.00216631 0.00495608) // 503
    (-0.00648596 0.00185083 0.00569303) // 504
    (-0.00748245 0.00177097 0.00573354) // 505
    (-0.00648191 0.00180154 0.00470990) // 506
    (-0.00723826 0.00175276 0.00497511) // 507
    (-0.00644005 0.00149312 0.00571723) // 508
    (-0.00743196 0.00136856 0.00575769) // 509
    (-0.00643167 0.00142776 0.00473506) // 510
    (-0.00718557 0.00134893 0.00500001) // 511
    (-0.00637936 0.00114538 0.00574708) // 512
    (-0.00736475 0.00097685 0.00578749) // 513
    (-0.00636509 0.00106366 0.00476621) // 514
    (-0.00711547 0.00095540 0.00503081) // 515
    (-0.00630479 0.00080795 0.00578259) // 516
    (-0.00728182 0.00059627 0.00582294) // 517
    (-0.00628307 0.00070970 0.00480337) // 518
    (-0.00702889 0.00057267 0.00506752) // 519
    (-0.00621724 0.00048111 0.00582376) // 520
    (-0.00718415 0.00022718 0.00586402) // 521
    (-0.00618648 0.00036627 0.00484659) // 522
    (-0.00692678 0.00020117 0.00511019) // 523
    (-0.00611759 0.00016505 0.00587058) // 524
    (-0.00707272 -0.00013014 0.00591074) // 525
    (-0.00607618 0.00003371 0.00489589) // 526
    (-0.00681009 -0.00015873 0.00515882) // 527
    (-0.00600669 -0.00014007 0.00592306) // 528
    (-0.00694846 -0.00047547 0.00596309) // 529
    (-0.00595303 -0.00028771 0.00495130) // 530
    (-0.00667974 -0.00050674 0.00521344) // 531
    (-0.00588537 -0.00043418 0.00598119) // 532
    (-0.00681230 -0.00080866 0.00602109) // 533
    (-0.00581789 -0.00059775 0.00501285) // 534
    (-0.00653664 -0.00084261 0.00527407) // 535
    (-0.00575442 -0.00071723 0.00604499) // 536
    (-0.00666512 -0.00112961 0.00608472) // 537
    (-0.00567159 -0.00089626 0.00508058) // 538
    (-0.00638170 -0.00116616 0.00534073) // 539
    (-0.00561459 -0.00098924 0.00611443) // 540
    (-0.00650779 -0.00143829 0.00615398) // 541
    (-0.00551494 -0.00118310 0.00515449) // 542
    (-0.00621579 -0.00147726 0.00541344) // 543
    (-0.00546661 -0.00125027 0.00618954) // 544
    (-0.00634112 -0.00173473 0.00622888) // 545
    (-0.00534873 -0.00145820 0.00523462) // 546
    (-0.00603977 -0.00177584 0.00549222) // 547
    (-0.00531114 -0.00150043 0.00627030) // 548
    (-0.00616589 -0.00201899 0.00630941) // 549
    (-0.00517374 -0.00172153 0.00532097) // 550
    (-0.00585445 -0.00206188 0.00557705) // 551
    (-0.00514884 -0.00173984 0.00635672) // 552
    (-0.00598283 -0.00229119 0.00639557) // 553
    (-0.00499072 -0.00197309 0.00541354) // 554
    (-0.00566063 -0.00233540 0.00566797) // 555
    (-0.00498029 -0.00196868 0.00644879) // 556
    (-0.00579262 -0.00255148 0.00648737) // 557
    (-0.00480037 -0.00221295 0.00551233) // 558
    (-0.00545907 -0.00259647 0.00576495) // 559
    (-0.00480604 -0.00218713 0.00654652) // 560
    (-0.00559591 -0.00280005 0.00658480) // 561
    (-0.00460340 -0.00244118 0.00561733) // 562
    (-0.00525049 -0.00284520 0.00586799) // 563
    (-0.00462659 -0.00239542 0.00664991) // 564
    (-0.00539328 -0.00303712 0.00668787) // 565
    (-0.00440044 -0.00265792 0.00572852) // 566
    (-0.00503556 -0.00308174 0.00597707) // 567
    (-0.00444239 -0.00259378 0.00675895) // 568
    (-0.00518526 -0.00326293 0.00679657) // 569
    (-0.00419211 -0.00286331 0.00584587) // 570
    (-0.00481493 -0.00330627 0.00609218) // 571
    (-0.00425386 -0.00278246 0.00687365) // 572
    (-0.00497233 -0.00347775 0.00691091) // 573
    (-0.00397899 -0.00305754 0.00596934) // 574
    (-0.00458919 -0.00351899 0.00621328) // 575
    (-0.00406135 -0.00296171 0.00699400) // 576
    (-0.00475493 -0.00368185 0.00703088) // 577
    (-0.00376160 -0.00324081 0.00609888) // 578
    (-0.00435886 -0.00372014 0.00634035) // 579
    (-0.00386518 -0.00313178 0.00712002) // 580
    (-0.00453343 -0.00387552 0.00715650) // 581
    (-0.00354042 -0.00341335 0.00623444) // 582
    (-0.00412445 -0.00390997 0.00647333) // 583
    (-0.00366563 -0.00329295 0.00725168) // 584
    (-0.00430814 -0.00405904 0.00728776) // 585
    (-0.00331590 -0.00357539 0.00637595) // 586
    (-0.00388638 -0.00408875 0.00661218) // 587
    (-0.00346291 -0.00344545 0.00738901) // 588
    (-0.00407933 -0.00423271 0.00742467) // 589
    (-0.00308843 -0.00372718 0.00652334) // 590
    (-0.00364502 -0.00425676 0.00675686) // 591
    (-0.00325722 -0.00358954 0.00753199) // 592
    (-0.00384723 -0.00439680 0.00756724) // 593
    (-0.00285832 -0.00386898 0.00667655) // 594
    (-0.00340072 -0.00441427 0.00690731) // 595
    (-0.00304871 -0.00372544 0.00768063) // 596
    (-0.00361199 -0.00455159 0.00771545) // 597
    (-0.00262588 -0.00400103 0.00683549) // 598
    (-0.00315373 -0.00456155 0.00706347) // 599
    (-0.00283748 -0.00385337 0.00783492) // 600
    (-0.00337375 -0.00469733 0.00786932) // 601
    (-0.00239133 -0.00412358 0.00700010) // 602
    (-0.00290426 -0.00469889 0.00722530) // 603
    (-0.00262360 -0.00397353 0.00799487) // 604
    (-0.00313257 -0.00483424 0.00802885) // 605
    (-0.00215487 -0.00423687 0.00717029) // 606
    (-0.00265249 -0.00482652 0.00739273) // 607
    (-0.00240713 -0.00408608 0.00816048) // 608
    (-0.00288850 -0.00496254 0.00819404) // 609
    (-0.00191664 -0.00434111 0.00734600) // 610
    (-0.00239853 -0.00494467 0.00756571) // 611