/*--------------------------------*- C++ -*----------------------------------*\
| =========                 |                                                 |
| \\      /  F ield         | OpenFOAM: The Open Source CFD Toolbox           |
|  \\    /   O peration     | Version:  2012                                  |
|   \\  /    A nd           | Website:  www.openfoam.com                      |
|    \\/     M anipulation  |                                                 |
\*---------------------------------------------------------------------------*/
FoamFile
{
    version     2.0;
    format      ascii;
    class       polyBoundaryMesh;
    location    "constant/polyMesh";
    object      boundary;
}
// * * * * * * * * * * * * * * * * * * * * * * * * * * * * * * * * * * * * * //

3
(
    outlet
    {
        type            patch;
        nFaces          500;
        startFace       471620;
    }
    walls
    {
        type            patch;
        nFaces          12760;
        startFace       472120;
    }
    inlet
    {
        type            patch;
        nFaces          500;
        startFace       484880;
    }
)

// ************************************************************************* //
