/*--------------------------------*- C++ -*----------------------------------*\
| =========                 |                                                 |
| \\      /  F ield         | OpenFOAM: The Open Source CFD Toolbox           |
|  \\    /   O peration     | Version:  v1806                                 |
|   \\  /    A nd           | Web:      www.OpenFOAM.com                      |
|    \\/     M anipulation  |                                                 |
\*---------------------------------------------------------------------------*/
FoamFile
{
    version     2.0;
    format      ascii;
    class       dictionary;
    object      blockMeshDict;
}
// * * * * * * * * * * * * * * * * * * * * * * * * * * * * * * * * * * * * * //

scale   1;

// the updated blockMesh (openfoam.com) fails on some meshes with default options;
// it reports report inconsistent number of faces although the mesh is still OK.
// this happens where two 'wedge' blocks with different numbers of cells join in the same
// point/edge.
mergeType points;
checkFaceCorrespondence false;



vertices
(
    
    (0.00000000 0.00000000 0.50000000) // 0
    (0.49993706 0.00000000 -0.00793298) // 1
    (0.24996853 0.00000000 -0.00146649) // 2
    (0.00000000 0.00000000 0.25250000) // 3
    (-0.01819824 0.17931333 0.53550296) // 4
    (0.48017825 0.21878412 0.02756998) // 5
    (0.23099001 0.19904873 0.03403647) // 6
    (-0.01819824 0.17931333 0.28800296) // 7
    (-0.01586397 0.00000000 -0.49974827) // 8
    (-0.00793198 0.00000000 -0.24737414) // 9
    (-0.03401268 0.17806085 -0.46424531) // 10
    (-0.02610546 0.17868709 -0.21187118) // 11
    (-0.49943367 0.00000000 0.02379096) // 12
    (-0.24971683 0.00000000 0.01439548) // 13
    (-0.51607290 0.13988228 0.05929392) // 14
    (-0.26713557 0.15959781 0.04989844) // 15
    (-0.04561105 0.35048139 0.57100592) // 16
    (0.44809346 0.42917655 0.06307294) // 17
    (0.20124121 0.38982897 0.06953943) // 18
    (-0.04561105 0.35048139 0.32350592) // 19
    (-0.06127724 0.34798424 -0.42874235) // 20
    (-0.05344415 0.34923281 -0.17636822) // 21
    (-0.53881843 0.27186546 0.09479688) // 22
    (-0.29221474 0.31117342 0.08540140) // 23
    (-0.08223843 0.51350417 0.60650888) // 24
    (0.40371185 0.63093241 0.09857589) // 25
    (0.16073671 0.57221829 0.10504238) // 26
    (-0.08223843 0.51350417 0.35900888) // 27
    (-0.09765857 0.50977794 -0.39323940) // 28
    (-0.08994850 0.51164105 -0.14086526) // 29
    (-0.56769940 0.39619417 0.13029983) // 30
    (-0.32496892 0.45484917 0.12090435) // 31
    (-0.12808039 0.66838167 0.64201183) // 32
    (0.34708184 0.82380987 0.13407885) // 33
    (0.10950073 0.74609577 0.14054534) // 34
    (-0.12808039 0.66838167 0.39451183) // 35
    (-0.14315820 0.66344963 -0.35773644) // 36
    (-0.13561929 0.66591565 -0.10536230) // 37
    (-0.60276417 0.51310997 0.16580279) // 38
    (-0.36542228 0.59074582 0.15640731) // 39
    (-0.18313692 0.81511389 0.67751479) // 40
    (0.27827078 1.00757170 0.16958181) // 41
    (0.04756693 0.91134280 0.17604830) // 42
    (-0.18313692 0.81511389 0.43001479) // 43
    (-0.19777827 0.80900684 -0.32223348) // 44
    (-0.19045759 0.81206037 -0.06985934) // 45
    (-0.64408001 0.62284988 0.20130575) // 46
    (-0.41360846 0.71898189 0.19191027) // 47
    (-0.24740802 0.95370084 0.71301775) // 48
    (0.19736454 1.18198672 0.20508477) // 49
    (-0.02502174 1.06784378 0.21155126) // 50
    (-0.24740802 0.95370084 0.46551775) // 51
    (-0.26152151 0.94645689 -0.28673052) // 52
    (-0.25446476 0.95007887 -0.03435638) // 53
    (-0.69173272 0.72564483 0.23680871) // 54
    (-0.46957037 0.83967284 0.22741323) // 55
    (-0.32089369 1.08414252 0.74852071) // 56
    (0.10446697 1.34683126 0.24058773) // 57
    (-0.10821336 1.21548689 0.24705422) // 58
    (-0.32089369 1.08414252 0.50102071) // 59
    (-0.33439121 1.07580690 -0.25122756) // 60
    (-0.32764245 1.07997471 0.00114657) // 61
    (-0.74582605 0.82171827 0.27231167) // 62
    (-0.53335987 0.95293040 0.26291619) // 63
    (-0.40359394 1.20643891 0.78402367) // 64
    (-0.00030074 1.50189054 0.27609069) // 65
    (-0.20194734 1.35416473 0.28255718) // 66
    (-0.40359394 1.20643891 0.53652367) // 67
    (-0.41639121 1.19706366 -0.21572460) // 68
    (-0.40999258 1.20175129 0.03664953) // 69
    (-0.80648106 0.91128478 0.30781463) // 70
    (-0.60503750 1.05886185 0.29841915) // 71
    (-0.49550876 1.32059003 0.81952663) // 72
    (-0.11680082 1.64696001 0.31159365) // 73
    (-0.30615479 1.48377502 0.31806014) // 74
    (-0.49550876 1.32059003 0.57202663) // 75
    (-0.50752589 1.31023369 -0.18022164) // 76
    (-0.50151733 1.31541186 0.07215249) // 77
    (-0.87383538 0.99454869 0.34331759) // 78
    (-0.68467207 1.15756936 0.33392211) // 79
    (-0.59663816 1.42659588 0.85502959) // 80
    (-0.24487977 1.78184664 0.34709660) // 81
    (-0.42075896 1.60422126 0.35356309) // 82
    (-0.59663816 1.42659588 0.60752959) // 83
    (-0.60780013 1.41532309 -0.14471869) // 84
    (-0.60221914 1.42095948 0.10765545) // 85
    (-0.94804235 1.07170282 0.37882054) // 86
    (-0.77234025 1.24914935 0.36942506) // 87
    (-0.70698212 1.52445644 0.89053254) // 88
    (-0.38436936 1.90637014 0.38259956) // 89
    (-0.54567574 1.71541329 0.38906605) // 90
    (-0.70698212 1.52445644 0.64303254) // 91
    (-0.71721925 1.51233759 -0.10921573) // 92
    (-0.71210069 1.51839702 0.14315841) // 93
    (-1.02927005 1.14292730 0.41432350) // 94
    (-0.86812608 1.33369187 0.40492802) // 95
    (-0.82654066 1.61417174 0.92603550) // 96
    (-0.53508761 2.02036404 0.41810252) // 97
    (-0.68081414 1.81726789 0.42456901) // 98
    (-0.82654066 1.61417174 0.67853550) // 99
    (-0.83578903 1.60128247 -0.07371277) // 100
    (-0.83116485 1.60772710 0.17866137) // 101
    (-1.11770024 1.20838843 0.44982646) // 102
    (-0.97212045 1.41128008 0.44043098) // 103
    (-0.95531378 1.69574175 0.96153846) // 104
    (-0.69684001 2.12367677 0.45360548) // 105
    (-0.82607689 1.90970926 0.46007197) // 106
    (-0.95531378 1.69574175 0.71403846) // 107
    (-0.96351565 1.68216255 -0.03820981) // 108
    (-0.95941471 1.68895215 0.21416433) // 109
    (-1.21352728 1.26823763 0.48532942) // 110
    (-1.08442053 1.48198969 0.47593394) // 111
    (-1.09330146 1.76916649 0.99704142) // 112
    (-0.86942066 2.21617259 0.48910844) // 113
    (-0.98136106 1.99266954 0.49557493) // 114
    (-1.09330146 1.76916649 0.74954142) // 115
    (-1.10040563 1.75498212 -0.00270685) // 116
    (-1.09685355 1.76207431 0.24966728) // 117
    (-1.31695684 1.32261049 0.52083238) // 118
    (-1.20512915 1.54588849 0.51143690) // 119
    (-1.24050372 1.83444595 1.03254438) // 120
    (-1.05261358 2.29773243 0.52461140) // 121
    (-1.14655865 2.06608919 0.53107789) // 122
    (-1.24050372 1.83444595 0.78504438) // 123
    (-1.24646584 1.81974498 0.03279611) // 124
    (-1.24348478 1.82709546 0.28517024) // 125
    (-1.42820467 1.37162596 0.55633534) // 126
    (-1.33435419 1.60303596 0.54693986) // 127
    (-1.39686723 1.89155581 1.06804734) // 128
    (-1.24614078 2.36823034 0.56011436) // 129
    (-1.32150401 2.12989307 0.56658085) // 130
    (-1.39686723 1.89155581 0.82054734) // 131
    (-1.40165008 1.87643001 0.06829907) // 132
    (-1.39925866 1.88399291 0.32067320) // 133
    (-1.54744192 1.41536126 0.59183830) // 134
    (-1.47215458 1.65345853 0.58244282) // 135
    (-1.55610049 1.93762558 1.10355030) // 136
    (-1.44347871 2.42471223 0.59561731) // 137
    (-1.49978960 2.18116890 0.60208380) // 138
    (-1.55610049 1.93762558 0.85605030) // 139
    (-1.55967419 1.92216938 0.10380202) // 140
    (-1.55788734 1.92989748 0.35617616) // 141
    (-1.66860886 1.45102938 0.62734125) // 142
    (-1.61235468 1.69432748 0.61794577) // 143
    (-1.71388473 1.97068483 1.13905325) // 144
    (-1.64007074 2.46514268 0.63112027) // 145
    (-1.67697773 2.21791375 0.63758676) // 146
    (-1.71388473 1.97068483 0.89155325) // 147
    (-1.71622699 1.95499473 0.13930498) // 148
    (-1.71505586 1.96283978 0.39167912) // 149
    (-1.78762439 1.47672486 0.66284421) // 150
    (-1.75075456 1.72370485 0.65344873) // 151
    (-1.87021995 1.99073357 1.17455621) // 152
    (-1.83567458 2.48947567 0.66662323) // 153
    (-1.85294727 2.24010462 0.67308972) // 154
    (-1.87021995 1.99073357 0.92705621) // 155
    (-1.87131615 1.97490752 0.17480794) // 156
    (-1.87076805 1.98282055 0.42718208) // 157
    (-1.90473055 1.49249366 0.69834717) // 158
    (-1.88747525 1.74161361 0.68895169) // 159
    (-2.02510617 1.99777180 1.21005917) // 160
    (-2.03004508 2.49768446 0.70212619) // 161
    (-2.02757562 2.24772813 0.70859268) // 162
    (-2.02510617 1.99777180 0.96255917) // 163
    (-2.02494945 1.98190860 0.21031090) // 164
    (-2.02502781 1.98984020 0.46268504) // 165
    (-2.02017223 1.49836250 0.73385013) // 166
    (-2.02263920 1.74806715 0.72445465) // 167
    (-2.17854337 1.99179951 1.24556213) // 168
    (-2.22293573 2.48976174 0.73762915) // 169
    (-2.20073955 2.24078063 0.74409564) // 170
    (-2.17854337 1.99179951 0.99806213) // 171
    (-2.17713471 1.97599821 0.24581386) // 172
    (-2.17783904 1.98389886 0.49818799) // 173
    (-2.13419571 1.49433868 0.76935309) // 174
    (-2.15636954 1.74306910 0.75995761) // 175
    (-2.33053156 1.97281671 1.28106509) // 176
    (-2.41410022 2.46571969 0.77313211) // 177
    (-2.37231589 2.21926820 0.77959860) // 178
    (-2.33053156 1.97281671 1.03356509) // 179
    (-2.32787976 1.95717595 0.28131682) // 180
    (-2.32920566 1.96499633 0.53369095) // 181
    (-2.24704704 1.48041004 0.80485605) // 182
    (-2.28878930 1.72661338 0.79546057) // 183
    (-2.48107073 1.94082340 1.31656805) // 184
    (-2.60329397 2.42558988 0.80863507) // 185
    (-2.54218235 2.18320664 0.81510156) // 186
    (-2.48107073 1.94082340 1.06906805) // 187
    (-2.47719235 1.92544082 0.31681978) // 188
    (-2.47913154 1.93313211 0.56919391) // 189
    (-2.35897055 1.45654503 0.84035901) // 190
    (-2.42002064 1.69868421 0.83096353) // 191
    (-2.63016089 1.89581957 1.35207101) // 192
    (-2.79027566 2.36942312 0.84413802) // 193
    (-2.71021827 2.13262135 0.85060451) // 194
    (-2.63016089 1.89581957 1.10457101) // 195
    (-2.62508014 1.88079121 0.35232273) // 196
    (-2.62762051 1.88830539 0.60469687) // 197
    (-2.47020734 1.42269289 0.87586196) // 198
    (-2.55018411 1.65925623 0.86646648) // 199
    (-2.77780204 1.83780523 1.38757396) // 200
    (-2.97480872 2.29728910 0.87964098) // 201
    (-2.87630538 2.06754717 0.88610747) // 202
    (-2.77780204 1.83780523 1.14007396) // 203
    (-2.77155063 1.82322492 0.38782569) // 204
    (-2.77467634 1.83051507 0.64019983) // 205
    (-2.58099372 1.37878401 0.91136492) // 206
    (-2.67939788 1.60829462 0.90196944) // 207
    (-2.92399417 1.76678037 1.42307692) // 208
    (-3.15666285 2.20927597 0.91514394) // 209
    (-3.04032851 1.98802817 0.92161043) // 210
    (-2.92399417 1.76678037 1.17557692) // 211
    (-2.91661114 1.75273914 0.42332865) // 212
    (-2.92030266 1.75975975 0.67570279) // 213
    (-2.69155977 1.32473033 0.94686788) // 214
    (-2.80777697 1.54575535 0.93747240) // 215
    (-3.06762213 1.68343299 1.45857988) // 216
    (-3.33450022 2.10617777 0.95064690) // 217
    (-3.20106117 1.89480538 0.95711339) // 218
    (-3.06762213 1.68343299 1.21107988) // 219
    (-3.05915357 1.67001848 0.45883161) // 220
    (-3.06338785 1.67672573 0.71120575) // 221
    (-2.80101276 1.26111387 0.98237084) // 222
    (-2.93431744 1.47227343 0.97297536) // 223
    (-3.20199491 1.59189096 1.49408284) // 224
    (-3.50141627 1.99224569 0.98614986) // 225
    (-3.35170559 1.79206833 0.99261635) // 226
    (-3.20199491 1.59189096 1.24658284) // 227
    (-3.19249369 1.57918693 0.49433457) // 228
    (-3.19724430 1.58553895 0.74670870) // 229
    (-2.90287503 1.19193935 1.01787380) // 230
    (-3.05243497 1.39191515 1.00847832) // 231
    (-3.32599735 1.49284227 1.52958580) // 232
    (-3.65609268 1.86830751 1.02165282) // 233
    (-3.49104501 1.68057489 1.02811931) // 234
    (-3.32599735 1.49284227 1.28208580) // 235
    (-3.31552279 1.48092803 0.52983753) // 236
    (-3.32076007 1.48688515 0.78221166) // 237
    (-2.99623440 1.11775509 1.05337676) // 238
    (-3.16111588 1.30529868 1.04398128) // 239
    (-3.43962945 1.38628692 1.56508876) // 240
    (-3.79833793 1.73451860 1.05715578) // 241
    (-3.61898369 1.56040276 1.06362227) // 242
    (-3.43962945 1.38628692 1.31758876) // 243
    (-3.42824694 1.37523686 0.56534049) // 244
    (-3.43393820 1.38076189 0.81771462) // 245
    (-3.08128217 1.03840588 1.08887972) // 246
    (-3.26045581 1.21234640 1.07948424) // 247
    (-3.54289122 1.27222491 1.60059172) // 248
    (-3.92797339 1.59104898 1.09265873) // 249
    (-3.73543230 1.43163695 1.09912523) // 250
    (-3.54289122 1.27222491 1.35309172) // 251
    (-3.53067182 1.26210801 0.60084344) // 252
    (-3.53678152 1.26716646 0.85321758) // 253
    (-3.15819680 0.95372186 1.12438267) // 254
    (-3.35054401 1.11297339 1.11498719) // 255
    (-3.63578265 1.15065624 1.63609467) // 256
    (-4.04483441 1.43808227 1.12816169) // 257
    (-3.84030853 1.29436925 1.13462818) // 258
    (-3.63578265 1.15065624 1.38859467) // 259
    (-3.62280265 1.14153566 0.63634640) // 260
    (-3.62929265 1.14609595 0.88872054) // 261
    (-3.22714276 0.86351962 1.15988563) // 262
    (-3.43146270 1.00708793 1.15049015) // 263
    (-3.71830374 1.02158090 1.67159763) // 264
    (-4.14877135 1.27581446 1.16366465) // 265
    (-3.93353754 1.14869768 1.17013114) // 266
    (-3.71830374 1.02158090 1.42409763) // 267
    (-3.70464417 1.01351358 0.67184936) // 268
    (-3.71147395 1.01754724 0.92422350) // 269
    (-3.28826956 0.76760334 1.19538859) // 270
    (-3.50328665 0.89459212 1.18599311) // 271
    (-3.79045448 0.88499891 1.70710059) // 272
    (-4.23965050 1.10445279 1.19916761) // 273
    (-4.01505249 0.99472585 1.20563410) // 274
    (-3.79045448 0.88499891 1.45960059) // 275
    (-3.77620063 0.87803522 0.70735232) // 276
    (-3.78332756 0.88151706 0.95972646) // 277
    (-3.34171077 0.66576600 1.23089155) // 278
    (-3.56608263 0.77538246 1.22149607) // 279
    (-3.85223490 0.74091026 1.74260355) // 280
    (-4.31735495 0.92421439 1.23467057) // 281
    (-4.08479492 0.83256232 1.24113706) // 282
    (-3.85223490 0.74091026 1.49510355) // 283
    (-3.83747574 0.73509366 0.74285528) // 284
    (-3.84485532 0.73800196 0.99522941) // 285
    (-3.38758318 0.55779070 1.26639451) // 286
    (-3.61990904 0.64935048 1.25699903) // 287
    (-3.90364497 0.58931494 1.77810651) // 288
    (-4.38178527 0.73532495 1.27017353) // 289
    (-4.14271512 0.66231995 1.27664002) // 290
    (-3.90364497 0.58931494 1.53060651) // 291
    (-3.88847265 0.58468176 0.77835824) // 292
    (-3.89605881 0.58699835 1.03073237) // 293
    (-3.42598611 0.44345196 1.30189747) // 294
    (-3.66481554 0.51638345 1.29250199) // 295
    (-3.94468470 0.43021297 1.81360947) // 296
    (-4.43286018 0.53801729 1.30567649) // 297
    (-4.18877244 0.48411513 1.31214298) // 298
    (-3.94468470 0.43021297 1.56610947) // 299
    (-3.92919395 0.42679213 0.81386120) // 300
    (-3.93693933 0.42850255 1.06623533) // 301
    (-3.45700077 0.32251719 1.33740043) // 302
    (-3.70084274 0.37636508 1.32800495) // 303
    (-3.97446582 0.26772294 1.84911243) // 304
    (-4.46962875 0.33664855 1.34117944) // 305
    (-4.22204728 0.30218575 1.34764594) // 306
    (-3.97446582 0.26772294 1.60161243) // 307
    (-3.95875334 0.26553580 0.84936415) // 308
    (-3.96660958 0.26662937 1.10173829) // 309
    (-3.47980147 0.19886674 1.37290338) // 310
    (-3.72713364 0.23329484 1.36350790) // 311
    (-3.99169428 0.10784483 1.88461538) // 312
    (-4.49075332 0.13746141 1.37668240) // 313
    (-4.24122380 0.12265312 1.38314889) // 314
    (-3.99169428 0.10784483 1.63711538) // 315
    (-3.97585818 0.10690503 0.88486711) // 316
    (-3.98377623 0.10737493 1.13724125) // 317
    (-3.49313775 0.07825806 1.40840634) // 318
    (-3.74241602 0.09305144 1.39901086) // 319
    (-3.99635913 -0.04937054 1.92011834) // 320
    (-4.49619861 -0.05924787 1.41218536) // 321
    (-4.24627887 -0.05430921 1.41865185) // 322
    (-3.99635913 -0.04937054 1.67261834) // 323
    (-3.98049826 -0.04905711 0.92037007) // 324
    (-3.98842869 -0.04921383 1.17274421) // 325
    (-3.49702294 -0.03950315 1.44390930) // 326
    (-3.74669104 -0.04443684 1.43451382) // 327
    (-3.98846036 -0.20392315 1.95562130) // 328
    (-4.48595974 -0.25323274 1.44768832) // 329
    (-4.23721005 -0.22857795 1.45415481) // 330
    (-3.98846036 -0.20392315 1.70812130) // 331
    (-3.97267374 -0.20235846 0.95587303) // 332
    (-3.98056705 -0.20314081 1.20824717) // 333
    (-3.49146192 -0.15466321 1.47941226) // 334
    (-3.73996114 -0.17929318 1.47001678) // 335
    (-3.96799797 -0.35581301 1.99112426) // 336
    (-4.46005132 -0.44424701 1.48319128) // 337
    (-4.21402464 -0.40003001 1.48965777) // 338
    (-3.96799797 -0.35581301 1.74362426) // 339
    (-3.95238417 -0.35300683 0.99137599) // 340
    (-3.96019107 -0.35440992 1.24375012) // 341
    (-3.47644008 -0.26746805 1.51491522) // 342
    (-3.72221903 -0.31164053 1.50551974) // 343
    (-3.93497196 -0.50504011 2.02662722) // 344
    (-4.41850734 -0.63204643 1.51869424) // 345
    (-4.17673965 -0.56854327 1.52516073) // 346
    (-3.93497196 -0.50504011 1.77912722) // 347
    (-3.91962845 -0.50100996 1.02687895) // 348
    (-3.92730021 -0.50302504 1.27925308) // 349
    (-3.45192346 -0.37816168 1.55041818) // 350
    (-3.69344771 -0.44160090 1.54102270) // 351
    (-3.88938234 -0.65160447 2.06213018) // 352
    (-4.36138100 -0.81639018 1.55419720) // 353
    (-4.12538167 -0.73399732 1.56066369) // 354
    (-3.88938234 -0.65160447 1.81463018) // 355
    (-3.87440491 -0.64637550 1.06238191) // 356
    (-3.88189363 -0.64898998 1.31475604) // 357
    (-3.41785894 -0.48698468 1.58592114) // 358
    (-3.65362064 -0.56929457 1.57652566) // 359
    (-3.83122910 -0.79550607 2.09763314) // 360
    (-4.28874431 -0.99704241 1.58970015) // 361
    (-4.05998670 -0.89627424 1.59616665) // 362
    (-3.83122910 -0.79550607 1.85013314) // 363
    (-3.81671126 -0.78911093 1.09788486) // 364
    (-3.82397018 -0.79230850 1.35025900) // 365
    (-3.37417456 -0.59417265 1.62142409) // 366
    (-3.60270183 -0.69483936 1.61202862) // 367
    (-3.76051224 -0.93674491 2.13313609) // 368
    (-4.20068770 -1.17377367 1.62520311) // 369
    (-3.98059997 -1.05525929 1.63166960) // 370
    (-3.76051224 -0.93674491 1.88563609) // 371
    (-3.74654462 -0.92922353 1.13338782) // 372
    (-3.75352843 -0.93298422 1.38576196) // 373
    (-3.32078000 -0.69995482 1.65692705) // 374
    (-3.54064612 -0.81834986 1.64753157) // 375
    (-3.67723176 -1.07532101 2.16863905) // 376
    (-4.09731941 -1.34636240 1.66070607) // 377
    (-3.88727559 -1.21084170 1.66717256) // 378
    (-3.67723176 -1.07532101 1.92113905) // 379
    (-3.66390157 -1.06672034 1.16889078) // 380
    (-3.67056667 -1.07102067 1.42126492) // 381
    (-3.25756711 -0.80455253 1.69243001) // 382
    (-3.46739943 -0.93993677 1.68303453) // 383
    (-3.58166413 -1.21085368 2.20414201) // 384
    (-3.97904133 -1.51421557 1.69620903) // 385
    (-3.78035273 -1.36253462 1.70267552) // 386
    (-3.58166413 -1.21085368 1.95664201) // 387
    (-3.56905459 -1.20122743 1.20439374) // 388
    (-3.57535936 -1.20604055 1.45676788) // 389
    (-3.18468706 -0.90779726 1.72793297) // 390
    (-3.38317559 -1.05932547 1.71853749) // 391
    (-3.47817131 -1.33733694 2.23964497) // 392
    (-3.85035719 -1.67112540 1.73171199) // 393
    (-3.66426425 -1.50423117 1.73817848) // 394
    (-3.47817131 -1.33733694 1.99214497) // 395
    (-3.46636113 -1.32674519 1.23989670) // 396
    (-3.47226622 -1.33204106 1.49227083) // 397
    (-3.10636019 -1.00388458 1.76343593) // 398
    (-3.29226575 -1.17061076 1.75404045) // 399
    (-3.36825849 -1.45269828 2.27514793) // 400
    (-3.71292947 -1.81482945 1.76721495) // 401
    (-3.54059398 -1.63376386 1.77368144) // 402
    (-3.36825849 -1.45269828 2.02764793) // 403
    (-3.35732141 -1.44120716 1.27539966) // 404
    (-3.36278995 -1.44695272 1.52777379) // 405
    (-3.02393456 -1.09093175 1.79893889) // 406
    (-3.19609652 -1.27181501 1.78954341) // 407
    (-3.25192566 -1.55693771 2.31065089) // 408
    (-3.56692993 -1.94515077 1.80271791) // 409
    (-3.40942779 -1.75104424 1.80918440) // 410
    (-3.25192566 -1.55693771 2.06315089) // 411
    (-3.24192997 -1.54461896 1.31090262) // 412
    (-3.24692781 -1.55077833 1.56327675) // 413
    (-2.93723858 -1.16911554 1.83444185) // 414
    (-3.09458212 -1.36302662 1.82504637) // 415
    (-3.12917283 -1.65005521 2.34615385) // 416
    (-3.41254379 -2.06192652 1.83822086) // 417
    (-3.27085831 -1.85599087 1.84468736) // 418
    (-3.12917283 -1.65005521 2.09865385) // 419
    (-3.12018092 -1.63698574 1.34640557) // 420
    (-3.12467688 -1.64352048 1.59877971) // 421
    (-2.84608721 -1.23859863 1.86994480) // 422
    (-2.98763002 -1.44432692 1.86054933) // 423
    (-3.00000000 -1.73205081 2.38165680) // 424
    (-3.24996853 -2.16500901 1.87372382) // 425
    (-3.12498427 -1.94852991 1.88019031) // 426
    (-3.00000000 -1.73205081 2.13415680) // 427
    (-2.99206802 -1.71831221 1.38190853) // 428
    (-2.99603401 -1.72518151 1.63428267) // 429
    (-2.75028317 -1.29952856 1.90544776) // 430
    (-2.87514158 -1.51578968 1.89605228) // 431
    (-2.86440717 -1.80292448 2.41715976) // 432
    (-3.07941270 -2.25426658 1.90922678) // 433
    (-2.97190993 -2.02859553 1.91569327) // 434
    (-2.86440717 -1.80292448 2.16965976) // 435
    (-2.85758463 -1.78860253 1.41741149) // 436
    (-2.86099590 -1.79576351 1.66978563) // 437
    (-2.64961812 -1.35203685 1.94095072) // 438
    (-2.75701264 -1.57748067 1.93155524) // 439
    (-2.72239433 -1.86267625 2.45266272) // 440
    (-2.90109457 -2.32958447 1.94472974) // 441
    (-2.81174445 -2.09613036 1.95119623) // 442
    (-2.72239433 -1.86267625 2.20516272) // 443
    (-2.71672383 -1.84786035 1.45291445) // 444
    (-2.71955908 -1.85526830 1.70528859) // 445
    (-2.54387403 -1.39623816 1.97645368) // 446
    (-2.63313418 -1.62945720 1.96705820) // 447
    (-2.57396149 -1.91130609 2.48816568) // 448
    (-2.71524079 -2.39086550 1.98023270) // 449
    (-2.64460114 -2.15108580 1.98669919) // 450
    (-2.57396149 -1.91130609 2.24066568) // 451
    (-2.56947842 -1.89608875 1.48841741) // 452
    (-2.57171996 -1.90369742 1.74079154) // 453
    (-2.43282444 -1.43222956 2.01195664) // 454
    (-2.50339297 -1.67176783 2.00256116) // 455
    (-2.41910865 -1.94881402 2.52366864) // 456
    (-2.52208499 -2.43803068 2.01573566) // 457
    (-2.47059682 -2.19342235 2.02220215) // 458
    (-2.41910865 -1.94881402 2.27616864) // 459
    (-2.41584101 -1.93329023 1.52392037) // 460
    (-2.41747483 -1.94105213 1.77629450) // 461
    (-2.31623599 -1.46008996 2.04745960) // 462
    (-2.36767232 -1.70445199 2.03806412) // 463
    (-2.25783580 -1.97520004 2.55917160) // 464
    (-2.32186630 -2.47101972 2.05123862) // 465
    (-2.28985105 -2.22310988 2.05770511) // 466
    (-2.25783580 -1.97520004 2.31167160) // 467
    (-2.25580399 -1.95946672 1.55942333) // 468
    (-2.25681990 -1.96733338 1.81179746) // 469
    (-2.19386977 -1.47987960 2.08296256) // 470
    (-2.22585279 -1.72753982 2.07356708) // 471
    (-2.09268802 -1.99019697 2.59467456) // 472
    (-2.11737292 -2.48952424 2.08674157) // 473
    (-2.10503047 -2.23986060 2.09320807) // 474
    (-2.09268802 -1.99019697 2.34717456) // 475
    (-2.09190472 -1.97435235 1.59492629) // 476
    (-2.09229637 -1.98227466 1.84730042) // 477
    (-2.06802797 -1.49137248 2.11846551) // 478
    (-2.08035799 -1.74078472 2.10907004) // 479
    (-1.93104080 -1.99303058 2.63017751) // 480
    (-1.91622600 -2.49274809 2.12224453) // 481
    (-1.92363340 -2.24288934 2.12871102) // 482
    (-1.93104080 -1.99303058 2.38267751) // 483
    (-1.93151090 -1.97717358 1.63042924) // 484
    (-1.93127585 -1.98510208 1.88280338) // 485
    (-1.94584068 -1.49381625 2.15396847) // 486
    (-1.93844074 -1.74342342 2.14457299) // 487
    (-1.77336160 -1.98365181 2.66568047) // 488
    (-1.71913958 -2.48063978 2.15774749) // 489
    (-1.74625059 -2.23214580 2.16421398) // 490
    (-1.77336160 -1.98365181 2.41818047) // 491
    (-1.77508216 -1.96788143 1.66593220) // 492
    (-1.77422188 -1.97576662 1.91830634) // 493
    (-1.82752901 -1.48716427 2.18947143) // 494
    (-1.80044530 -1.73540804 2.18007595) // 495
    (-1.61965042 -1.96206065 2.70118343) // 496
    (-1.52635970 -2.45321634 2.19325045) // 497
    (-1.57300506 -2.20763850 2.19971694) // 498
    (-1.61965042 -1.96206065 2.45368343) // 499
    (-1.62261071 -1.94647534 1.70143516) // 500
    (-1.62113056 -1.95426799 1.95380930) // 501
    (-1.71284719 -1.47139952 2.22497439) // 502
    (-1.66624880 -1.71673008 2.21557891) // 503
    (-1.46990726 -1.92825711 2.73668639) // 504
    (-1.33813026 -2.41051419 2.22875341) // 505
    (-1.40401876 -2.16938565 2.23521990) // 506
    (-1.46990726 -1.92825711 2.48918639) // 507
    (-1.47408879 -1.91295416 1.73693812) // 508
    (-1.47199803 -1.92060563 1.98931225) // 509
    (-1.60155156 -1.44648562 2.26047735) // 510
    (-1.53572941 -1.68737136 2.25108187) // 511
    (-1.32413212 -1.88224117 2.77218935) // 512
    (-1.15469154 -2.35258887 2.26425637) // 513
    (-1.23941183 -2.11741502 2.27072286) // 514
    (-1.32413212 -1.88224117 2.52468935) // 515
    (-1.32950879 -1.86731613 1.77244108) // 516
    (-1.32682046 -1.87477865 2.02481521) // 517
    (-1.49340208 -1.41236707 2.29598031) // 518
    (-1.40876710 -1.64730412 2.28658483) // 519
    (-1.18232500 -1.82401285 2.80769231) // 520
    (-0.97627867 -2.27951475 2.29975933) // 521
    (-1.07930184 -2.05176380 2.30622582) // 522
    (-1.18232500 -1.82401285 2.56019231) // 523
    (-1.18886325 -1.80955890 1.80794404) // 524
    (-1.18559413 -1.81678587 2.06031817) // 525
    (-1.38816386 -1.36896961 2.33148327) // 526
    (-1.28524443 -1.59649123 2.32208779) // 527
    (-1.04448591 -1.75357214 2.84319527) // 528
    (-0.80312019 -2.19138450 2.33526228) // 529
    (-0.92380305 -1.97247832 2.34172878) // 530
    (-1.04448591 -1.75357214 2.59569527) // 531
    (-1.05214491 -1.73967951 1.84344700) // 532
    (-1.04831541 -1.74662583 2.09582113) // 533
    (-1.28560859 -1.31620063 2.36698622) // 534
    (-1.16504725 -1.53488638 2.35759075) // 535
    (-0.91061483 -1.67091905 2.87869822) // 536
    (-0.63543660 -2.08830856 2.37076524) // 537
    (-0.77302571 -1.87961380 2.37723173) // 538
    (-0.91061483 -1.67091905 2.63119822) // 539
    (-0.91934677 -1.65767447 1.87894995) // 540
    (-0.91498080 -1.66429676 2.13132409) // 541
    (-1.18551599 -1.25394981 2.40248918) // 542
    (-1.04806541 -1.46243443 2.39309370) // 543
    (-0.78071178 -1.57605356 2.91420118) // 544
    (-0.47343898 -1.97041444 2.40626820) // 545
    (-0.62707538 -1.77323400 2.41273469) // 546
    (-0.78071178 -1.57605356 2.66670118) // 547
    (-0.79046214 -1.56353973 1.91445291) // 548
    (-0.78558696 -1.56979665 2.16682705) // 549
    (-1.08767517 -1.18208978 2.43799214) // 550
    (-0.93419347 -1.37907167 2.42859666) // 551
    (-0.65481556 -1.46901064 2.94970414) // 552
    (-0.31736654 -1.83788084 2.44177116) // 553
    (-0.48609105 -1.65344574 2.44823765) // 554
    (-0.65481556 -1.46901064 2.70220414) // 555
    (-0.66552347 -1.45730567 1.94995587) // 556
    (-0.66016951 -1.46315816 2.20233001) // 557
    (-0.99192480 -1.10051186 2.47349510) // 558
    (-0.82337018 -1.28476125 2.46409962) // 559
    (-0.53750629 -1.35391402 2.98520710) // 560
    (-0.17198777 -1.69499067 2.47727412) // 561
    (-0.35474703 -1.52445234 2.48374061) // 562
    (-0.53750629 -1.35391402 2.73770710) // 563
    (-0.54910490 -1.34309100 1.98545883) // 564
    (-0.54330559 -1.34850251 2.23783296) // 565
    (-0.90265677 -1.01318081 2.50899806) // 566
    (-0.72008153 -1.18354742 2.49960258) // 567
    (-0.43192795 -1.23359443 3.02071006) // 568
    (-0.04062189 -1.54474814 2.51277708) // 569
    (-0.23627492 -1.38917128 2.51924357) // 570
    (-0.43192795 -1.23359443 2.77321006) // 571
    (-0.44434484 -1.22372092 2.02096179) // 572
    (-0.43813640 -1.22865767 2.27333592) // 573
    (-0.82284000 -0.92275402 2.54450102) // 574
    (-0.62738397 -1.07817422 2.53510554) // 575
    (-0.33808053 -1.10805185 3.05621302) // 576
    (0.07657011 -1.38734007 2.54828004) // 577
    (-0.13075521 -1.24769596 2.55474653) // 578
    (-0.33808053 -1.10805185 2.80871302) // 579
    (-0.35123820 -1.09918950 2.05646475) // 580
    (-0.34465937 -1.10362067 2.30883888) // 581
    (-0.75231366 -0.82904484 2.58000398) // 582
    (-0.54519710 -0.96854835 2.57060850) // 583
    (-0.25596405 -0.97728629 3.09171598) // 584
    (0.17944248 -1.22296540 2.58378299) // 585
    (-0.03826078 -1.10012585 2.59024949) // 586
    (-0.25596405 -0.97728629 2.84421598) // 587
    (-0.26978033 -0.96949042 2.09196771) // 588
    (-0.26287219 -0.97338836 2.34434184) // 589
    (-0.69093215 -0.73185456 2.61550693) // 590
    (-0.47344810 -0.85457042 2.60611146) // 591
    (-0.18557849 -0.84129775 3.12721893) // 592
    (0.26786564 -1.05183396 2.61928595) // 593
    (0.04114358 -0.94656585 2.62575244) // 594
    (-0.18557849 -0.84129775 2.87971893) // 595
    (-0.19996714 -0.83461703 2.12747066) // 596
    (-0.19277281 -0.83795739 2.37984480) // 597
    (-0.63856603 -0.63097354 2.65100989) // 598
    (-0.41207226 -0.73613564 2.64161441) // 599
    (-0.12692385 -0.70008623 3.16272189) // 600
    (0.34172698 -0.87416513 2.65478891) // 601
    (0.10740156 -0.78712568 2.66125540) // 602
    (-0.12692385 -0.70008623 2.91522189) // 603
    (-0.14179505 -0.69456237 2.16297362) // 604
    (-0.13435945 -0.69732430 2.41534776) // 605
    (-0.59510279 -0.52618261 2.68651285) // 606
    (-0.36101332 -0.61313442 2.67711737) // 607
    (-0.08000014 -0.55365173 3.19822485) // 608
    (0.40093157 -0.69018654 2.69029187) // 609