/*--------------------------------*- C++ -*----------------------------------*\
| =========                 |                                                 |
| \\      /  F ield         | OpenFOAM: The Open Source CFD Toolbox           |
|  \\    /   O peration     | Version:  v1806                                 |
|   \\  /    A nd           | Web:      www.OpenFOAM.com                      |
|    \\/     M anipulation  |                                                 |
\*---------------------------------------------------------------------------*/
FoamFile
{
    version     2.0;
    format      ascii;
    class       dictionary;
    object      blockMeshDict;
}
// * * * * * * * * * * * * * * * * * * * * * * * * * * * * * * * * * * * * * //

scale   1;

// the updated blockMesh (openfoam.com) fails on some meshes with default options;
// it reports report inconsistent number of faces although the mesh is still OK.
// this happens where two 'wedge' blocks with different numbers of cells join in the same
// point/edge.
mergeType points;
checkFaceCorrespondence false;



vertices
(
    
    (0.00500000 -0.01250000 -0.00245000) // 0
    (0.00749969 -0.01250000 0.00008966) // 1
    (0.00624984 -0.01250000 0.00005733) // 2
    (0.00500000 -0.01250000 -0.00121250) // 3
    (0.00500000 0.00061105 -0.00237338) // 4
    (0.00749969 -0.00001597 0.00008766) // 5
    (0.00624984 -0.00000798 0.00005633) // 6
    (0.00500000 0.00030553 -0.00117419) // 7
    (0.00492068 -0.01250000 0.00254874) // 8
    (0.00496034 -0.01250000 0.00128687) // 9
    (0.00492068 -0.00062309 0.00247062) // 10
    (0.00496034 -0.00031154 0.00124781) // 11
    (0.00250283 -0.01250000 -0.00006895) // 12
    (0.00375142 -0.01250000 -0.00002198) // 13
    (0.00250283 0.00002320 -0.00006605) // 14
    (0.00375142 0.00001160 -0.00002052) // 15
    (0.00491608 0.00109795 -0.00224838) // 16
    (0.00746517 0.00071884 0.00021266) // 17
    (0.00622056 0.00060434 0.00018133) // 18
    (0.00494602 0.00079389 -0.00104919) // 19
    (0.00495805 -0.00013802 0.00259562) // 20
    (0.00496700 0.00017591 0.00137281) // 21
    (0.00248852 0.00026828 0.00005895) // 22
    (0.00373223 0.00037906 0.00010448) // 23
    (0.00478487 0.00157429 -0.00212338) // 24
    (0.00735884 0.00144673 0.00033766) // 25
    (0.00613143 0.00121084 0.00030633) // 26
    (0.00484445 0.00127463 -0.00092419) // 27
    (0.00494772 0.00034837 0.00272062) // 28
    (0.00492587 0.00066167 0.00149781) // 29
    (0.00245027 0.00051079 0.00018395) // 30
    (0.00367714 0.00074287 0.00022948) // 31
    (0.00460763 0.00203548 -0.00199838) // 32
    (0.00718171 0.00216069 0.00046266) // 33
    (0.00598331 0.00180570 0.00043133) // 34
    (0.00469627 0.00174309 -0.00079919) // 35
    (0.00488979 0.00083141 0.00284562) // 36
    (0.00483736 0.00114106 0.00162281) // 37
    (0.00238844 0.00074837 0.00030895) // 38
    (0.00358668 0.00109954 0.00035448) // 39
    (0.00438605 0.00247708 -0.00187338) // 40
    (0.00693548 0.00285387 0.00058766) // 41
    (0.00577763 0.00238319 0.00055633) // 42
    (0.00450291 0.00219479 -0.00067419) // 43
    (0.00478482 0.00130645 0.00297062) // 44
    (0.00470230 0.00160948 0.00174781) // 45
    (0.00230363 0.00097876 0.00043395) // 46
    (0.00346171 0.00144563 0.00047948) // 47
    (0.00412228 0.00289486 -0.00174838) // 48
    (0.00662253 0.00351960 0.00071266) // 49
    (0.00551636 0.00293774 0.00068133) // 50
    (0.00426624 0.00262537 -0.00054919) // 51
    (0.00463381 0.00176893 0.00309562) // 52
    (0.00452200 0.00206241 0.00187281) // 53
    (0.00219666 0.00119974 0.00055895) // 54
    (0.00330343 0.00177781 0.00060448) // 55
    (0.00381885 0.00328478 -0.00162338) // 56
    (0.00624587 0.00415146 0.00083766) // 57
    (0.00520202 0.00346404 0.00080633) // 58
    (0.00398851 0.00303070 -0.00042419) // 59
    (0.00443823 0.00221438 0.00322062) // 60
    (0.00429820 0.00249550 0.00199781) // 61
    (0.00206856 0.00140917 0.00068395) // 62
    (0.00311337 0.00209289 0.00072948) // 63
    (0.00347867 0.00364310 -0.00149838) // 64
    (0.00580912 0.00474339 0.00096266) // 65
    (0.00483764 0.00395700 0.00093133) // 66
    (0.00367242 0.00340686 -0.00029919) // 67
    (0.00419994 0.00263853 0.00334562) // 68
    (0.00403305 0.00290458 0.00212281) // 69
    (0.00192056 0.00160504 0.00080895) // 70
    (0.00289336 0.00238783 0.00085448) // 71
    (0.00310503 0.00396638 -0.00137338) // 72
    (0.00531647 0.00528967 0.00108766) // 73
    (0.00442671 0.00441190 0.00105633) // 74
    (0.00332099 0.00375025 -0.00017419) // 75
    (0.00392124 0.00303730 0.00347062) // 76
    (0.00372909 0.00328571 0.00224781) // 77
    (0.00175408 0.00178547 0.00093395) // 78
    (0.00264551 0.00265980 0.00097948) // 79
    (0.00270152 0.00425149 -0.00124838) // 80
    (0.00477268 0.00578507 0.00121266) // 81
    (0.00397319 0.00482435 0.00118133) // 82
    (0.00293761 0.00405756 -0.00004919) // 83
    (0.00360483 0.00340684 0.00359562) // 84
    (0.00338926 0.00363524 0.00237281) // 85
    (0.00157072 0.00194873 0.00105895) // 86
    (0.00237221 0.00290618 0.00110448) // 87
    (0.00227202 0.00449570 -0.00112338) // 88
    (0.00418298 0.00622481 0.00133766) // 89
    (0.00348145 0.00519039 0.00130633) // 90
    (0.00252597 0.00432583 0.00007581) // 91
    (0.00325372 0.00374361 0.00372062) // 92
    (0.00301682 0.00394979 0.00249781) // 93
    (0.00137225 0.00209323 0.00118395) // 94
    (0.00207609 0.00312460 0.00122948) // 95
    (0.00182065 0.00469666 -0.00099838) // 96
    (0.00355302 0.00660466 0.00146266) // 97
    (0.00295621 0.00550649 0.00143133) // 98
    (0.00209003 0.00455249 0.00020081) // 99
    (0.00287132 0.00404436 0.00384562) // 100
    (0.00261536 0.00422634 0.00262281) // 101
    (0.00116058 0.00221760 0.00130895) // 102
    (0.00175999 0.00331296 0.00135448) // 103
    (0.00135178 0.00485243 -0.00087338) // 104
    (0.00288889 0.00692097 0.00158766) // 105
    (0.00240253 0.00576961 0.00155633) // 106
    (0.00163398 0.00473534 0.00032581) // 107
    (0.00246129 0.00430620 0.00397062) // 108
    (0.00218873 0.00446223 0.00274781) // 109
    (0.00093775 0.00232063 0.00143395) // 110
    (0.00142696 0.00346944 0.00147948) // 111
    (0.00086989 0.00496152 -0.00074838) // 112
    (0.00219696 0.00717070 0.00171266) // 113
    (0.00182574 0.00597723 0.00168133) // 114
    (0.00116221 0.00487264 0.00045081) // 115
    (0.00202758 0.00452661 0.00409562) // 116
    (0.00174105 0.00465519 0.00287281) // 117
    (0.00070589 0.00240134 0.00155895) // 118
    (0.00108020 0.00359255 0.00160448) // 119
    (0.00037964 0.00502287 -0.00062338) // 120
    (0.00148390 0.00735143 0.00183766) // 121
    (0.00123138 0.00612734 0.00180633) // 122
    (0.00067925 0.00496306 0.00057581) // 123
    (0.00157437 0.00470348 0.00422062) // 124
    (0.00127662 0.00480336 0.00299781) // 125
    (0.00046724 0.00245894 0.00168395) // 126
    (0.00072305 0.00368109 0.00172948) // 127
    (-0.00011427 0.00503590 -0.00049838) // 128
    (0.00075656 0.00746144 0.00196266) // 129
    (0.00062518 0.00621850 0.00193133) // 130
    (0.00018977 0.00500573 0.00070081) // 131
    (0.00110601 0.00483509 0.00434562) // 132
    (0.00079990 0.00490532 0.00312281) // 133
    (0.00022410 0.00249289 0.00180895) // 134
    (0.00035895 0.00373422 0.00185448) // 135
    (-0.00060707 0.00500049 -0.00037338) // 136
    (0.00002194 0.00749967 0.00208766) // 137
    (0.00001296 0.00624983 0.00205633) // 138
    (-0.00030154 0.00500024 0.00082581) // 139
    (0.00062700 0.00492018 0.00447062) // 140
    (0.00031549 0.00496009 0.00324781) // 141
    (-0.00002120 0.00250285 0.00193395) // 142
    (-0.00000861 0.00375142 0.00197948) // 143
    (-0.00109404 0.00491696 -0.00024838) // 144
    (-0.00071289 0.00746574 0.00221266) // 145
    (-0.00059938 0.00622104 0.00218133) // 146
    (-0.00078996 0.00494665 0.00095081) // 147
    (0.00014197 0.00495794 0.00459562) // 148
    (-0.00017195 0.00496714 0.00337281) // 149
    (-0.00026630 0.00248873 0.00205895) // 150
    (-0.00037609 0.00373253 0.00210448) // 151
    (-0.00157048 0.00478612 -0.00012338) // 152
    (-0.00144086 0.00735999 0.00233766) // 153
    (-0.00120596 0.00613239 0.00230633) // 154
    (-0.00127077 0.00484546 0.00107581) // 155
    (-0.00034443 0.00494800 0.00472062) // 156
    (-0.00065774 0.00492640 0.00349781) // 157
    (-0.00050883 0.00245067 0.00218395) // 158
    (-0.00073995 0.00367774 0.00222948) // 159
    (-0.00203181 0.00460925 0.00000162) // 160
    (-0.00215497 0.00718343 0.00246266) // 161
    (-0.00180094 0.00598475 0.00243133) // 162
    (-0.00173935 0.00469766 0.00120081) // 163
    (-0.00082752 0.00489045 0.00484562) // 164
    (-0.00113721 0.00483826 0.00362281) // 165
    (-0.00074647 0.00238903 0.00230895) // 166
    (-0.00109669 0.00358755 0.00235448) // 167
    (-0.00247359 0.00438802 0.00012662) // 168
    (-0.00284835 0.00693775 0.00258766) // 169
    (-0.00237858 0.00577953 0.00255633) // 170
    (-0.00219120 0.00450466 0.00132581) // 171
    (-0.00130264 0.00478586 0.00497062) // 172
    (-0.00160573 0.00470358 0.00374781) // 173
    (-0.00097693 0.00230441 0.00243395) // 174
    (-0.00144287 0.00346286 0.00247948) // 175
    (-0.00289157 0.00412458 0.00025162) // 176
    (-0.00351432 0.00662533 0.00271266) // 177
    (-0.00293335 0.00551870 0.00268133) // 178
    (-0.00262197 0.00426832 0.00145081) // 179
    (-0.00176524 0.00463522 0.00509562) // 180
    (-0.00205880 0.00452364 0.00387281) // 181
    (-0.00119799 0.00219762 0.00255895) // 182
    (-0.00177518 0.00330484 0.00260448) // 183
    (-0.00328174 0.00382146 0.00037662) // 184
    (-0.00414649 0.00624917 0.00283766) // 185
    (-0.00345989 0.00520478 0.00280633) // 186
    (-0.00302752 0.00399092 0.00157581) // 187
    (-0.00221085 0.00443999 0.00522062) // 188
    (-0.00249207 0.00430019 0.00399781) // 189
    (-0.00140752 0.00206968 0.00268395) // 190
    (-0.00209041 0.00311504 0.00272948) // 191
    (-0.00364033 0.00348157 0.00050162) // 192
    (-0.00473876 0.00581289 0.00296266) // 193
    (-0.00395315 0.00484079 0.00293133) // 194
    (-0.00340394 0.00367513 0.00170081) // 195
    (-0.00263519 0.00420204 0.00534562) // 196
    (-0.00290136 0.00403536 0.00412281) // 197
    (-0.00160351 0.00192184 0.00280895) // 198
    (-0.00238553 0.00289526 0.00285448) // 199
    (-0.00396390 0.00310819 0.00062662) // 200
    (-0.00528544 0.00532068 0.00308766) // 201
    (-0.00440837 0.00443022 0.00305633) // 202
    (-0.00374761 0.00332397 0.00182581) // 203
    (-0.00303417 0.00392366 0.00547062) // 204
    (-0.00328274 0.00373171 0.00424781) // 205
    (-0.00178408 0.00175550 0.00293395) // 206
    (-0.00265769 0.00264763 0.00297948) // 207
    (-0.00424934 0.00270491 0.00075162) // 208
    (-0.00578127 0.00477729 0.00321266) // 209
    (-0.00482118 0.00397703 0.00318133) // 210
    (-0.00405522 0.00294084 0.00195081) // 211
    (-0.00340397 0.00360754 0.00559562) // 212
    (-0.00363254 0.00339216 0.00437281) // 213
    (-0.00194748 0.00157227 0.00305895) // 214
    (-0.00290429 0.00237452 0.00310448) // 215
    (-0.00449389 0.00227560 0.00087662) // 216
    (-0.00622148 0.00418793 0.00333766) // 217
    (-0.00518761 0.00348558 0.00330633) // 218
    (-0.00432382 0.00252941 0.00207581) // 219
    (-0.00374102 0.00325670 0.00572062) // 220
    (-0.00394738 0.00301997 0.00449781) // 221
    (-0.00209214 0.00137392 0.00318395) // 222
    (-0.00312294 0.00207857 0.00322948) // 223
    (-0.00469521 0.00182439 0.00100162) // 224
    (-0.00660183 0.00355828 0.00346266) // 225
    (-0.00550413 0.00296059 0.00343133) // 226
    (-0.00455082 0.00209365 0.00220081) // 227
    (-0.00404207 0.00287454 0.00584562) // 228
    (-0.00422425 0.00261872 0.00462281) // 229
    (-0.00221668 0.00116235 0.00330895) // 230
    (-0.00331156 0.00176263 0.00335448) // 231
    (-0.00485135 0.00135564 0.00112662) // 232
    (-0.00691867 0.00289440 0.00358766) // 233
    (-0.00576770 0.00240713 0.00355633) // 234
    (-0.00473404 0.00163775 0.00232581) // 235
    (-0.00430424 0.00246472 0.00597062) // 236
    (-0.00446048 0.00219229 0.00474781) // 237
    (-0.00231988 0.00093960 0.00343395) // 238
    (-0.00346831 0.00142972 0.00347948) // 239
    (-0.00496082 0.00087384 0.00125162) // 240
    (-0.00716895 0.00220267 0.00371266) // 241
    (-0.00597577 0.00183050 0.00368133) // 242
    (-0.00487171 0.00116609 0.00245081) // 243
    (-0.00452500 0.00203119 0.00609562) // 244
    (-0.00465380 0.00174476 0.00487281) // 245
    (-0.00240078 0.00070780 0.00355895) // 246
    (-0.00359169 0.00108306 0.00360448) // 247
    (-0.00502257 0.00038364 0.00137662) // 248
    (-0.00735025 0.00148975 0.00383766) // 249
    (-0.00612636 0.00123626 0.00380633) // 250
    (-0.00496252 0.00068321 0.00257581) // 251
    (-0.00470222 0.00157811 0.00622062) // 252
    (-0.00480234 0.00128044 0.00499781) // 253
    (-0.00245857 0.00046920 0.00368395) // 254
    (-0.00368052 0.00072599 0.00372948) // 255
    (-0.00503599 -0.00011026 0.00150162) // 256
    (-0.00746084 0.00076250 0.00396266) // 257
    (-0.00621800 0.00063013 0.00393133) // 258
    (-0.00500558 0.00019375 0.00270081) // 259
    (-0.00483421 0.00110986 0.00634562) // 260
    (-0.00490468 0.00080381 0.00512281) // 261
    (-0.00249271 0.00022608 0.00380895) // 262
    (-0.00373393 0.00036192 0.00385448) // 263
    (-0.00500097 -0.00060309 0.00162662) // 264
    (-0.00749965 0.00002791 0.00408766) // 265
    (-0.00624982 0.00001794 0.00405633) // 266
    (-0.00500048 -0.00029756 0.00282581) // 267
    (-0.00491968 0.00063092 0.00647062) // 268
    (-0.00495984 0.00031944 0.00524781) // 269
    (-0.00250287 -0.00001921 0.00393395) // 270
    (-0.00375143 -0.00000562 0.00397948) // 271
    (-0.00491783 -0.00109012 0.00175162) // 272
    (-0.00746631 -0.00070695 0.00421266) // 273
    (-0.00622152 -0.00059443 0.00418133) // 274
    (-0.00494727 -0.00078602 0.00295081) // 275
    (-0.00495783 0.00014592 0.00659562) // 276
    (-0.00496727 -0.00016800 0.00537281) // 277
    (-0.00248894 -0.00026432 0.00405895) // 278
    (-0.00373283 -0.00037312 0.00410448) // 279
    (-0.00478737 -0.00156666 0.00187662) // 280
    (-0.00736113 -0.00143500 0.00433766) // 281
    (-0.00613335 -0.00120108 0.00430633) // 282
    (-0.00484647 -0.00126691 0.00307581) // 283
    (-0.00494827 -0.00034049 0.00672062) // 284
    (-0.00492692 -0.00065382 0.00549781) // 285
    (-0.00245108 -0.00050688 0.00418395) // 286
    (-0.00367832 -0.00073702 0.00422948) // 287
    (-0.00461086 -0.00202814 0.00200162) // 288
    (-0.00718514 -0.00214925 0.00446266) // 289
    (-0.00598618 -0.00179617 0.00443133) // 290
    (-0.00469904 -0.00173561 0.00320081) // 291
    (-0.00489111 -0.00082362 0.00684562) // 292
    (-0.00483917 -0.00113335 0.00562281) // 293
    (-0.00238963 -0.00074457 0.00430895) // 294
    (-0.00358843 -0.00109383 0.00435448) // 295
    (-0.00438999 -0.00247009 0.00212662) // 296
    (-0.00694002 -0.00284283 0.00458766) // 297
    (-0.00578142 -0.00237398 0.00455633) // 298
    (-0.00450640 -0.00218762 0.00332581) // 299
    (-0.00478690 -0.00129883 0.00697062) // 300
    (-0.00470486 -0.00160198 0.00574781) // 301
    (-0.00230519 -0.00097509 0.00443395) // 302
    (-0.00346400 -0.00144012 0.00447948) // 303
    (-0.00412688 -0.00288829 0.00225162) // 304
    (-0.00662813 -0.00350905 0.00471266) // 305
    (-0.00552104 -0.00292895 0.00468133) // 306
    (-0.00427041 -0.00261857 0.00345081) // 307
    (-0.00463663 -0.00176154 0.00709562) // 308
    (-0.00452528 -0.00205520 0.00587281) // 309
    (-0.00219857 -0.00119624 0.00455895) // 310
    (-0.00330626 -0.00177255 0.00460448) // 311
    (-0.00382407 -0.00327870 0.00237662) // 312
    (-0.00625247 -0.00414151 0.00483766) // 313
    (-0.00520753 -0.00345575 0.00480633) // 314
    (-0.00399333 -0.00302434 0.00357581) // 315
    (-0.00444175 -0.00220731 0.00722062) // 316
    (-0.00430217 -0.00248865 0.00599781) // 317
    (-0.00207080 -0.00140587 0.00468395) // 318
    (-0.00311670 -0.00208793 0.00472948) // 319
    (-0.00348447 -0.00363756 0.00250162) // 320
    (-0.00581666 -0.00473413 0.00496266) // 321
    (-0.00484393 -0.00394929 0.00493133) // 322
    (-0.00367784 -0.00340101 0.00370081) // 323
    (-0.00420414 -0.00263184 0.00734562) // 324
    (-0.00403767 -0.00289815 0.00612281) // 325
    (-0.00192311 -0.00160198 0.00480895) // 326
    (-0.00289716 -0.00238322 0.00485448) // 327
    (-0.00311135 -0.00396143 0.00262662) // 328
    (-0.00532489 -0.00528120 0.00508766) // 329
    (-0.00443373 -0.00440484 0.00505633) // 330
    (-0.00332696 -0.00374496 0.00382581) // 331
    (-0.00392608 -0.00303105 0.00747062) // 332
    (-0.00373432 -0.00327977 0.00624781) // 333
    (-0.00175692 -0.00178268 0.00493395) // 334
    (-0.00264974 -0.00265558 0.00497948) // 335
    (-0.00270829 -0.00424718 0.00275162) // 336
    (-0.00478189 -0.00577746 0.00521266) // 337
    (-0.00398087 -0.00481802 0.00518133) // 338
    (-0.00294407 -0.00405288 0.00395081) // 339
    (-0.00361025 -0.00340110 0.00759562) // 340
    (-0.00339505 -0.00362983 0.00637281) // 341
    (-0.00157382 -0.00194622 0.00505895) // 342
    (-0.00237683 -0.00290240 0.00510448) // 343
    (-0.00227917 -0.00449208 0.00287662) // 344
    (-0.00419288 -0.00621814 0.00533766) // 345
    (-0.00348971 -0.00518484 0.00530633) // 346
    (-0.00253285 -0.00432180 0.00407581) // 347
    (-0.00325968 -0.00373842 0.00772062) // 348
    (-0.00302311 -0.00394498 0.00649781) // 349
    (-0.00137559 -0.00209104 0.00518395) // 350
    (-0.00208106 -0.00312129 0.00522948) // 351
    (-0.00182813 -0.00469375 0.00300162) // 352
    (-0.00356354 -0.00659899 0.00546266) // 353
    (-0.00296498 -0.00550177 0.00543133) // 354
    (-0.00209727 -0.00454915 0.00420081) // 355
    (-0.00287776 -0.00403978 0.00784562) // 356
    (-0.00262209 -0.00422217 0.00662281) // 357
    (-0.00116411 -0.00221575 0.00530895) // 358
    (-0.00176526 -0.00331015 0.00535448) // 359
    (-0.00135950 -0.00485027 0.00312662) // 360
    (-0.00289991 -0.00691636 0.00558766) // 361
    (-0.00241172 -0.00576578 0.00555633) // 362
    (-0.00164152 -0.00473273 0.00432581) // 363
    (-0.00246815 -0.00430228 0.00797062) // 364
    (-0.00219584 -0.00445874 0.00674781) // 365
    (-0.00094144 -0.00231914 0.00543395) // 366
    (-0.00143249 -0.00346717 0.00547948) // 367
    (-0.00087779 -0.00496013 0.00325162) // 368
    (-0.00220838 -0.00716719 0.00571266) // 369
    (-0.00183526 -0.00597431 0.00568133) // 370
    (-0.00116996 -0.00487078 0.00445081) // 371
    (-0.00203479 -0.00452338 0.00809562) // 372
    (-0.00174846 -0.00465241 0.00687281) // 373
    (-0.00070971 -0.00240021 0.00555895) // 374
    (-0.00108592 -0.00359082 0.00560448) // 375
    (-0.00038764 -0.00502226 0.00337662) // 376
    (-0.00149560 -0.00734906 0.00583766) // 377
    (-0.00124114 -0.00612537 0.00580633) // 378
    (-0.00068716 -0.00496197 0.00457581) // 379
    (-0.00158186 -0.00470096 0.00822062) // 380
    (-0.00128427 -0.00480132 0.00699781) // 381
    (-0.00047116 -0.00245819 0.00568395) // 382
    (-0.00072892 -0.00367994 0.00572948) // 383
    (0.00010624 -0.00503608 0.00350162) // 384
    (-0.00076844 -0.00746023 0.00596266) // 385
    (-0.00063508 -0.00621750 0.00593133) // 386
    (-0.00019774 -0.00500542 0.00470081) // 387
    (-0.00111371 -0.00483332 0.00834562) // 388
    (-0.00080772 -0.00490404 0.00712281) // 389
    (-0.00022807 -0.00249253 0.00580895) // 390
    (-0.00036490 -0.00373365 0.00585448) // 391
    (0.00059911 -0.00500145 0.00362662) // 392
    (-0.00003388 -0.00749963 0.00608766) // 393
    (-0.00002291 -0.00624981 0.00605633) // 394
    (0.00029358 -0.00500072 0.00482581) // 395
    (-0.00063484 -0.00491918 0.00847062) // 396
    (-0.00032339 -0.00495958 0.00724781) // 397
    (0.00001722 -0.00250288 0.00593395) // 398
    (0.00000264 -0.00375143 0.00597948) // 399
    (0.00108620 -0.00491869 0.00375162) // 400
    (0.00070100 -0.00746687 0.00621266) // 401
    (0.00058948 -0.00622199 0.00618133) // 402
    (0.00078208 -0.00494790 0.00495081) // 403
    (-0.00014987 -0.00495771 0.00859562) // 404
    (0.00016404 -0.00496741 0.00737281) // 405
    (0.00026234 -0.00248915 0.00605895) // 406
    (0.00037014 -0.00373313 0.00610448) // 407
    (0.00156285 -0.00478862 0.00387662) // 408
    (0.00142914 -0.00736227 0.00633766) // 409
    (0.00119619 -0.00613431 0.00630633) // 410
    (0.00126305 -0.00484748 0.00507581) // 411
    (0.00033655 -0.00494854 0.00872062) // 412
    (0.00064990 -0.00492744 0.00749781) // 413
    (0.00050493 -0.00245148 0.00618395) // 414
    (0.00073409 -0.00367891 0.00622948) // 415
    (0.00202446 -0.00461248 0.00400162) // 416
    (0.00214353 -0.00718685 0.00646266) // 417
    (0.00179140 -0.00598761 0.00643133) // 418
    (0.00173187 -0.00470042 0.00520081) // 419
    (0.00081973 -0.00489177 0.00884562) // 420
    (0.00112950 -0.00484007 0.00762281) // 421
    (0.00074267 -0.00239022 0.00630895) // 422
    (0.00109097 -0.00358930 0.00635448) // 423
    (0.00246660 -0.00439196 0.00412662) // 424
    (0.00283730 -0.00694228 0.00658766) // 425
    (0.00236938 -0.00578331 0.00655633) // 426
    (0.00218403 -0.00450815 0.00532581) // 427
    (0.00129502 -0.00478793 0.00897062) // 428
    (0.00159824 -0.00470613 0.00774781) // 429
    (0.00097326 -0.00230596 0.00643395) // 430
    (0.00143736 -0.00346515 0.00647948) // 431
    (0.00288500 -0.00412918 0.00425162) // 432
    (0.00350377 -0.00663092 0.00671266) // 433
    (0.00292456 -0.00552337 0.00668133) // 434
    (0.00261517 -0.00427250 0.00545081) // 435
    (0.00175785 -0.00463803 0.00909562) // 436
    (0.00205160 -0.00452692 0.00787281) // 437
    (0.00119449 -0.00219952 0.00655895) // 438
    (0.00176992 -0.00330767 0.00660448) // 439
    (0.00327565 -0.00382668 0.00437662) // 440
    (0.00413653 -0.00625577 0.00683766) // 441
    (0.00345160 -0.00521028 0.00680633) // 442
    (0.00302116 -0.00399574 0.00557581) // 443
    (0.00220377 -0.00444350 0.00922062) // 444
    (0.00248522 -0.00430415 0.00799781) // 445
    (0.00140422 -0.00207192 0.00668395) // 446
    (0.00208545 -0.00311836 0.00672948) // 447
    (0.00363478 -0.00348737 0.00450162) // 448
    (0.00472949 -0.00582043 0.00696266) // 449
    (0.00394543 -0.00484708 0.00693133) // 450
    (0.00339808 -0.00368054 0.00570081) // 451
    (0.00262849 -0.00420623 0.00934562) // 452
    (0.00289493 -0.00403998 0.00812281) // 453
    (0.00160045 -0.00192439 0.00680895) // 454
    (0.00238091 -0.00289905 0.00685448) // 455
    (0.00395895 -0.00311450 0.00462662) // 456
    (0.00527696 -0.00532910 0.00708766) // 457
    (0.00440131 -0.00443723 0.00705633) // 458
    (0.00374231 -0.00332994 0.00582581) // 459
    (0.00302792 -0.00392849 0.00947062) // 460
    (0.00327679 -0.00373693 0.00824781) // 461
    (0.00178128 -0.00175834 0.00693395) // 462
    (0.00265347 -0.00265186 0.00697948) // 463
    (0.00424502 -0.00271167 0.00475162) // 464
    (0.00577365 -0.00478649 0.00721266) // 465
    (0.00481484 -0.00398470 0.00718133) // 466
    (0.00405053 -0.00294729 0.00595081) // 467
    (0.00339822 -0.00361295 0.00959562) // 468
    (0.00362713 -0.00339794 0.00837281) // 469
    (0.00194497 -0.00157537 0.00705895) // 470
    (0.00290050 -0.00237915 0.00710448) // 471
    (0.00449026 -0.00228275 0.00487662) // 472
    (0.00621480 -0.00419783 0.00733766) // 473
    (0.00518206 -0.00349384 0.00730633) // 474
    (0.00431979 -0.00253630 0.00607581) // 475
    (0.00373582 -0.00326266 0.00972062) // 476
    (0.00394257 -0.00302625 0.00849781) // 477
    (0.00208995 -0.00137725 0.00718395) // 478
    (0.00311963 -0.00208355 0.00722948) // 479
    (0.00469230 -0.00183187 0.00500162) // 480
    (0.00659615 -0.00356879 0.00746266) // 481
    (0.00549941 -0.00296936 0.00743133) // 482
    (0.00454748 -0.00210090 0.00620081) // 483
    (0.00403749 -0.00288097 0.00984562) // 484
    (0.00422008 -0.00262545 0.00862281) // 485
    (0.00221482 -0.00116588 0.00730895) // 486
    (0.00330874 -0.00176790 0.00735448) // 487
    (0.00484919 -0.00136336 0.00512662) // 488
    (0.00691405 -0.00290542 0.00758766) // 489
    (0.00576386 -0.00241631 0.00755633) // 490
    (0.00473143 -0.00164528 0.00632581) // 491
    (0.00430031 -0.00247157 0.00997062) // 492
    (0.00445699 -0.00219939 0.00874781) // 493
    (0.00231839 -0.00094329 0.00743395) // 494
    (0.00346602 -0.00143525 0.00747948) // 495
    (0.00495943 -0.00088174 0.00525162) // 496
    (0.00716543 -0.00221409 0.00771266) // 497
    (0.00597285 -0.00184001 0.00768133) // 498
    (0.00486985 -0.00117384 0.00645081) // 499
    (0.00452176 -0.00203839 0.01009562) // 500
    (0.00465102 -0.00175217 0.00887281) // 501
    (0.00239964 -0.00071162 0.00755895) // 502
    (0.00358996 -0.00108878 0.00760448) // 503
    (0.00502195 -0.00039164 0.00537662) // 504
    (0.00734787 -0.00150146 0.00783766) // 505
    (0.00612438 -0.00124602 0.00780633) // 506
    (0.00496142 -0.00069111 0.00657581) // 507
    (0.00469970 -0.00158560 0.01022062) // 508
    (0.00480030 -0.00128809 0.00899781) // 509
    (0.00245782 -0.00047311 0.00768395) // 510
    (0.00367936 -0.00073185 0.00772948) // 511
    (0.00503616 0.00010223 0.00550162) // 512
    (0.00745962 -0.00077438 0.00796266) // 513
    (0.00621699 -0.00064003 0.00793133) // 514
    (0.00500526 -0.00020173 0.00670081) // 515
    (0.00483243 -0.00111756 0.01034562) // 516
    (0.00490340 -0.00081162 0.00912281) // 517
    (0.00249234 -0.00023005 0.00780895) // 518
    (0.00373335 -0.00036787 0.00785448) // 519
    (0.00500192 0.00059512 0.00562662) // 520
    (0.00749960 -0.00003985 0.00808766) // 521
    (0.00624979 -0.00002789 0.00805633) // 522
    (0.00500095 0.00028960 0.00682581) // 523
    (0.00491867 -0.00063876 0.01047062) // 524
    (0.00495932 -0.00032734 0.00924781) // 525
    (0.00250289 0.00001522 0.00793395) // 526
    (0.00375143 -0.00000035 0.00797948) // 527
    (0.00491956 0.00108229 0.00575162) // 528
    (0.00746742 0.00069506 0.00821266) // 529
    (0.00622245 0.00058452 0.00818133) // 530
    (0.00494852 0.00077814 0.00695081) // 531
    (0.00495759 -0.00015381 0.01059562) // 532
    (0.00496754 0.00016009 0.00937281) // 533
    (0.00248936 0.00026035 0.00805895) // 534
    (0.00373342 0.00036717 0.00810448) // 535
    (0.00478986 0.00155904 0.00587662) // 536
    (0.00736341 0.00142328 0.00833766) // 537
    (0.00613526 0.00119131 0.00830633) // 538
    (0.00484848 0.00125919 0.00707581) // 539
    (0.00494881 0.00033261 0.01072062) // 540
    (0.00492796 0.00064597 0.00949781) // 541
    (0.00245188 0.00050298 0.00818395) // 542
    (0.00367949 0.00073116 0.00822948) // 543
    (0.00461409 0.00202079 0.00600162) // 544
    (0.00718855 0.00213781 0.00846266) // 545
    (0.00598903 0.00178663 0.00843133) // 546
    (0.00470180 0.00172812 0.00720081) // 547
    (0.00489242 0.00081583 0.01084562) // 548
    (0.00484097 0.00112565 0.00962281) // 549
    (0.00239081 0.00074076 0.00830895) // 550
    (0.00359016 0.00108811 0.00835448) // 551
    (0.00439392 0.00246310 0.00612662) // 552
    (0.00694454 0.00283177 0.00858766) // 553
    (0.00578519 0.00236477 0.00855633) // 554
    (0.00450988 0.00218044 0.00732581) // 555
    (0.00478896 0.00129121 0.01097062) // 556
    (0.00470740 0.00159449 0.00974781) // 557
    (0.00230674 0.00097142 0.00843395) // 558
    (0.00346629 0.00143460 0.00847948) // 559
    (0.00413148 0.00288171 0.00625162) // 560
    (0.00663371 0.00349849 0.00871266) // 561
    (0.00552569 0.00292016 0.00868133) // 562
    (0.00427458 0.00261177 0.00745081) // 563
    (0.00463942 0.00175416 0.01109562) // 564
    (0.00452855 0.00204799 0.00987281) // 565
    (0.00220047 0.00119273 0.00855895) // 566
    (0.00330907 0.00176728 0.00860448) // 567
    (0.00382929 0.00327260 0.00637662) // 568
    (0.00625906 0.00413155 0.00883766) // 569
    (0.00521303 0.00344745 0.00880633) // 570
    (0.00399815 0.00301798 0.00757581) // 571
    (0.00444526 0.00220023 0.01122062) // 572
    (0.00430613 0.00248179 0.00999781) // 573
    (0.00207304 0.00140257 0.00868395) // 574
    (0.00312002 0.00208296 0.00872948) // 575
    (0.00349026 0.00363201 0.00650162) // 576
    (0.00582420 0.00472486 0.00896266) // 577
    (0.00485022 0.00394157 0.00893133) // 578
    (0.00368325 0.00339515 0.00770081) // 579
    (0.00420832 0.00262514 0.01134562) // 580
    (0.00404228 0.00289171 0.01012281) // 581
    (0.00192566 0.00159892 0.00880895) // 582
    (0.00290095 0.00237860 0.00885448) // 583
    (0.00311765 0.00395647 0.00662662) // 584
    (0.00533330 0.00527271 0.00908766) // 585
    (0.00444074 0.00439778 0.00905633) // 586
    (0.00333292 0.00373965 0.00782581) // 587
    (0.00393090 0.00302479 0.01147062) // 588
    (0.00373954 0.00327382 0.01024781) // 589
    (0.00175976 0.00177988 0.00893395) // 590
    (0.00265397 0.00265136 0.00897948) // 591
    (0.00271505 0.00424286 0.00675162) // 592
    (0.00479109 0.00576984 0.00921266) // 593
    (0.00398854 0.00481167 0.00918133) // 594
    (0.00295052 0.00404818 0.00795081) // 595
    (0.00361566 0.00339534 0.01159562) // 596
    (0.00340082 0.00362442 0.01037281) // 597
    (0.00157692 0.00194371 0.00905895) // 598
    (0.00238145 0.00289861 0.00910448) // 599
    (0.00228633 0.00448844 0.00687662) // 600
    (0.00420278 0.00621145 0.00933766) // 601
    (0.00349796 0.00517927 0.00930633) // 602
    (0.00253973 0.00431776 0.00807581) // 603
    (0.00326563 0.00373323 0.01172062) // 604
    (0.00302939 0.00394016 0.01049781) // 605
    (0.00137891 0.00208885 0.00918395) // 606
    (0.00208603 0.00311797 0.00922948) // 607
    (0.00183561 0.00469084 0.00700162) // 608
    (0.00357404 0.00659331 0.00946266) // 609
    (0.00297374 0.00549704 0.00943133) // 610
    (0.00210452 0.00454581 0.00820081) // 611
    (0.00288419 0.00403519 0.01184562) // 612
    (0.00262881 0.00421799 0.01062281) // 613
    (0.00116764 0.00221389 0.00930895) // 614
    (0.00177053 0.00330733 0.00935448) // 615
    (0.00136723 0.00484810 0.00712662) // 616
    (0.00291092 0.00691173 0.00958766) // 617