/*--------------------------------*- C++ -*----------------------------------*\
| =========                 |                                                 |
| \\      /  F ield         | OpenFOAM: The Open Source CFD Toolbox           |
|  \\    /   O peration     | Version:  v1806                                 |
|   \\  /    A nd           | Web:      www.OpenFOAM.com                      |
|    \\/     M anipulation  |                                                 |
\*---------------------------------------------------------------------------*/
FoamFile
{
    version     2.0;
    format      ascii;
    class       dictionary;
    object      blockMeshDict;
}
// * * * * * * * * * * * * * * * * * * * * * * * * * * * * * * * * * * * * * //

scale   1;

// the updated blockMesh (openfoam.com) fails on some meshes with default options;
// it reports report inconsistent number of faces although the mesh is still OK.
// this happens where two 'wedge' blocks with different numbers of cells join in the same
// point/edge.
mergeType points;
checkFaceCorrespondence false;



vertices
(
    
    (3.00000000 -5.00000000 0.50000000) // 0
    (3.49993706 -5.00000000 -0.00793298) // 1
    (3.24996853 -5.00000000 -0.00146649) // 2
    (3.00000000 -5.00000000 0.25250000) // 3
    (3.03850382 -4.38833531 0.48987974) // 4
    (3.53799175 -4.40952211 -0.01805324) // 5
    (3.28824779 -4.39892871 -0.01158675) // 6
    (3.03850382 -4.38833531 0.24237974) // 7
    (2.98413603 -5.00000000 -0.49974827) // 8
    (2.99206802 -5.00000000 -0.24737414) // 9
    (3.02265411 -4.38766301 -0.50986853) // 10
    (3.03057897 -4.38799916 -0.25749439) // 11
    (2.50056633 -5.00000000 0.02379096) // 12
    (2.75028317 -5.00000000 0.01439548) // 13
    (2.53951884 -4.36716984 0.01367070) // 14
    (2.78901133 -4.37775257 0.00427522) // 15
    (3.06882326 -3.80458305 0.48191065) // 16
    (3.56732582 -3.84242829 -0.02602233) // 17
    (3.31807454 -3.82350567 -0.01955584) // 18
    (3.06882326 -3.80458305 0.23441065) // 19
    (3.05300481 -3.80338215 -0.51783762) // 20
    (3.06091404 -3.80398260 -0.26546348) // 21
    (2.57082265 -3.76677593 0.00570161) // 22
    (2.81982295 -3.78567949 -0.00369387) // 23
    (3.09095831 -3.24874324 0.47609273) // 24
    (3.58839065 -3.29872458 -0.03184025) // 25
    (3.33967448 -3.27373391 -0.02537376) // 26
    (3.09095831 -3.24874324 0.22859273) // 27
    (3.07517382 -3.24715724 -0.52365554) // 28
    (3.08306606 -3.24795024 -0.27128141) // 29
    (2.59402684 -3.19881224 -0.00011631) // 30
    (2.84249257 -3.22377774 -0.00951179) // 31
    (3.10490897 -2.72081587 0.47242597) // 32
    (3.60151499 -2.77843122 -0.03550701) // 33
    (3.35321198 -2.74962355 -0.02904052) // 34
    (3.10490897 -2.72081587 0.22492597) // 35
    (3.08915070 -2.71898763 -0.52732230) // 36
    (3.09702983 -2.71990175 -0.27494817) // 37
    (2.60880299 -2.66325854 -0.00378307) // 38
    (2.85685598 -2.69203721 -0.01317855) // 39
    (3.11067524 -2.22080095 0.47091037) // 40
    (3.60690549 -2.28156781 -0.03702261) // 41
    (3.35879036 -2.25118438 -0.03055612) // 42
    (3.11067524 -2.22080095 0.22341037) // 43
    (3.09492890 -2.21887270 -0.52883790) // 44
    (3.10280207 -2.21983682 -0.27646376) // 45
    (2.61494466 -2.16009526 -0.00529867) // 46
    (2.86280995 -2.19044811 -0.01469415) // 47
    (3.10825713 -1.74869846 0.47154595) // 48
    (3.60464739 -1.80814401 -0.03638704) // 49
    (3.35645226 -1.77842123 -0.02992055) // 50
    (3.10825713 -1.74869846 0.22404595) // 51
    (3.09250571 -1.74681214 -0.52820233) // 52
    (3.10038142 -1.74775530 -0.27582819) // 53
    (2.61236669 -1.68931276 -0.00466310) // 54
    (2.86031191 -1.71900561 -0.01405858) // 55
    (3.09765462 -1.30450841 0.47433268) // 56
    (3.59470497 -1.35815565 -0.03360030) // 57
    (3.34617979 -1.33133203 -0.02713381) // 58
    (3.09765462 -1.30450841 0.22683268) // 59
    (3.08188226 -1.30280608 -0.52541559) // 60
    (3.08976844 -1.30365725 -0.27304145) // 61
    (2.60110477 -1.25091519 -0.00187636) // 62
    (2.84937970 -1.27771180 -0.01127184) // 63
    (3.07886773 -0.88823081 0.47927059) // 64
    (3.57692131 -0.93158640 -0.02866240) // 65
    (3.32789452 -0.90990860 -0.02219591) // 66
    (3.07886773 -0.88823081 0.23177059) // 67
    (3.06306353 -0.88685505 -0.52047769) // 68
    (3.07096563 -0.88754293 -0.26810355) // 69
    (2.58131566 -0.84491887 0.00306154) // 70
    (2.83009170 -0.86657484 -0.00633394) // 71
    (3.05189646 -0.49986564 0.48635965) // 72
    (3.55101770 -0.52841478 -0.02157333) // 73
    (3.30145708 -0.51414021 -0.01510684) // 74
    (3.05189646 -0.49986564 0.23885965) // 75
    (3.03605838 -0.49895972 -0.51338862) // 76
    (3.04397742 -0.49941268 -0.26101448) // 77
    (2.55327779 -0.47134525 0.01015061) // 78
    (2.80258712 -0.48560545 0.00075513) // 79
    (3.01674079 -0.13941292 0.49559989) // 80
    (3.51659294 -0.14862681 -0.01233309) // 81
    (3.26666687 -0.14401987 -0.00586660) // 82
    (3.01674079 -0.13941292 0.24809989) // 83
    (3.00087952 -0.13912055 -0.50414838) // 84
    (3.00881016 -0.13926673 -0.25177425) // 85
    (2.51739195 -0.13020831 0.01939085) // 86
    (2.76706637 -0.13481061 0.00999537) // 87
    (2.97340074 0.19312736 0.50699129) // 88
    (3.47312344 0.20776595 -0.00094169) // 89
    (3.22326209 0.20044665 0.00552480) // 90
    (2.97340074 0.19312736 0.25949129) // 91
    (2.95754358 0.19266285 -0.49275698) // 92
    (2.96547216 0.19289511 -0.24038285) // 93
    (2.47418122 0.17850352 0.03078225) // 94
    (2.72379098 0.18581544 0.02138677) // 95
    (2.92187630 0.49775520 0.52053385) // 96
    (3.41996522 0.54070279 0.01260087) // 97
    (3.17092076 0.51922900 0.01906736) // 98
    (2.92187630 0.49775520 0.27303385) // 99
    (2.90607098 0.49639239 -0.47921442) // 100
    (2.91397364 0.49707380 -0.22684028) // 101
    (2.42428891 0.45485086 0.04432481) // 102
    (2.67308261 0.47630303 0.03492933) // 103
    (2.86216747 0.77447060 0.53622758) // 104
    (3.35635930 0.85004509 0.02829460) // 105
    (3.10926339 0.81225785 0.03476109) // 106
    (2.86216747 0.77447060 0.28872758) // 107
    (2.84648581 0.77207248 -0.46352069) // 108
    (2.85432664 0.77327154 -0.21114655) // 109
    (2.36847325 0.69897221 0.06001854) // 110
    (2.61532036 0.73672140 0.05062306) // 111
    (2.79427426 1.02327356 0.55407248) // 112
    (3.28144230 1.13554274 0.04613950) // 113
    (3.03785828 1.07940815 0.05260599) // 114
    (2.79427426 1.02327356 0.30657248) // 115
    (2.77881548 1.01971104 -0.44567579) // 116
    (2.78654487 1.02149230 -0.19330165) // 117
    (2.30759675 0.91111742 0.07786344) // 118
    (2.55093551 0.96719549 0.06846796) // 119
    (2.71819665 1.24416408 0.57406854) // 120
    (3.19426420 1.39679683 0.06613556) // 121
    (2.95623043 1.32048045 0.07260205) // 122
    (2.71819665 1.24416408 0.32656854) // 123
    (2.70309011 1.23932074 -0.42567973) // 124
    (2.71064338 1.24174241 -0.17330559) // 125
    (2.24260847 1.09168501 0.09785950) // 126
    (2.48040256 1.16792454 0.08846402) // 127
    (2.63340566 1.43849135 0.59602766) // 128
    (3.09344099 1.63420686 0.08809468) // 129
    (2.86342332 1.53634910 0.09456117) // 130
    (2.63340566 1.43849135 0.34852766) // 131
    (2.61880785 1.43228092 -0.40372061) // 132
    (2.62610676 1.43538613 -0.15134647) // 133
    (2.17383354 1.24297290 0.11981862) // 134
    (2.40361960 1.34073212 0.11042314) // 135
    (2.53467711 1.61957925 0.61809220) // 136
    (2.97468598 1.85691711 0.11015922) // 137
    (2.75468155 1.73824818 0.11662571) // 138
    (2.53467711 1.61957925 0.37059220) // 139
    (2.52071478 1.61204806 -0.38165607) // 140
    (2.52769595 1.61581366 -0.12928193) // 141
    (2.09511129 1.38248037 0.14188316) // 142
    (2.31489420 1.50102981 0.13248768) // 143
    (2.42067660 1.79083113 0.63978766) // 144
    (2.83733071 2.06712159 0.13185468) // 145
    (2.62900365 1.92897636 0.13832117) // 146
    (2.42067660 1.79083113 0.39228766) // 147
    (2.40745536 1.78206390 -0.35996061) // 148
    (2.41406598 1.78644751 -0.10758648) // 149
    (2.00444202 1.51481887 0.16357862) // 150
    (2.21255931 1.65282500 0.15418314) // 151
    (2.29140412 1.95224697 0.66111403) // 152
    (2.68174817 2.26460668 0.15318105) // 153
    (2.48657615 2.10842682 0.15964754) // 154
    (2.29140412 1.95224697 0.41361403) // 155
    (2.27901775 1.94233519 -0.33863424) // 156
    (2.28521094 1.94729108 -0.08626010) // 157
    (1.90145311 1.64020177 0.18490499) // 158
    (2.09642862 1.79622437 0.17550951) // 159
    (2.14685968 2.10382677 0.68207133) // 160
    (2.50831512 2.44920632 0.17413834) // 161
    (2.32758740 2.27651655 0.18060484) // 162
    (2.14685968 2.10382677 0.43457133) // 163
    (2.13539000 2.09286722 -0.31767694) // 164
    (2.14112484 2.09834699 -0.06530281) // 165
    (1.78576819 1.75879500 0.20586228) // 166
    (1.96631393 1.93131089 0.19646681) // 167
    (1.98704327 2.24557055 0.70265954) // 168
    (2.31740690 2.62079973 0.19472656) // 169
    (2.15222509 2.43318514 0.20119305) // 170
    (1.98704327 2.24557055 0.45515954) // 171
    (1.97656020 2.23366380 -0.29708873) // 172
    (1.98180174 2.23961718 -0.04471460) // 173
    (1.65701229 1.87071919 0.22645050) // 174
    (1.82202778 2.05814487 0.21705502) // 175
    (1.81195490 2.37747829 0.72287867) // 176
    (2.10939282 2.77930879 0.21494569) // 177
    (1.96067386 2.57839354 0.22141218) // 178
    (1.81195490 2.37747829 0.47537867) // 179
    (1.80251662 2.36472744 -0.27686960) // 180
    (1.80723576 2.37110286 -0.02449547) // 181
    (1.51481648 1.97605240 0.24666963) // 182
    (1.66338569 2.17676535 0.23727415) // 183
    (1.62159457 2.49955000 0.74272872) // 184
    (1.88463211 2.92469505 0.23479573) // 185
    (1.75311334 2.71212253 0.24126222) // 186
    (1.62159457 2.49955000 0.49522872) // 187
    (1.61324788 2.48605933 -0.25701956) // 188
    (1.61742122 2.49280467 -0.00464542) // 189
    (1.35882188 2.07483303 0.26651967) // 190
    (1.49020822 2.28719152 0.25712419) // 191
    (1.41596227 2.61178568 0.76220968) // 192
    (1.64347048 3.05695653 0.25427670) // 193
    (1.52971637 2.83437110 0.26074319) // 194
    (1.41596227 2.61178568 0.51470968) // 195
    (1.40874299 2.59765955 -0.23753859) // 196
    (1.41235263 2.60472261 0.01483555) // 197
    (1.18868314 2.16706308 0.28600064) // 198
    (1.30232270 2.38942438 0.27660516) // 199
    (1.19505800 2.71418532 0.78132157) // 200
    (1.38623716 3.17612428 0.27338858) // 201
    (1.29064758 2.94515480 0.27985508) // 202
    (1.19505800 2.71418532 0.53382157) // 203
    (1.18899152 2.69952711 -0.21842671) // 204
    (1.19202476 2.70685622 0.03394743) // 205
    (1.00407134 2.25271150 0.30511252) // 206
    (1.09956467 2.48344841 0.29571705) // 207
    (0.95888177 2.80674894 0.80006437) // 208
    (1.11324262 3.28225898 0.29213139) // 209
    (1.03606220 3.04450396 0.29859788) // 210
    (0.95888177 2.80674894 0.55256437) // 211
    (0.95398361 2.79166009 -0.19968390) // 212
    (0.95643269 2.79920451 0.05269023) // 213
    (0.80467636 2.33171769 0.32385533) // 214
    (0.88177907 2.56923331 0.31445985) // 215
    (0.71579232 2.88438901 0.81864458) // 216
    (0.83271497 3.37046119 0.31071160) // 217
    (0.77425364 3.12742510 0.31717809) // 218
    (0.71579232 2.88438901 0.57114458) // 219
    (0.71208214 2.86896501 -0.18110369) // 220
    (0.71393723 2.87667701 0.07127044) // 221
    (0.59898740 2.39880627 0.34243554) // 222
    (0.65738986 2.64159764 0.33304006) // 223
    (0.47493045 2.94154205 0.83728800) // 224
    (0.55357630 3.43525442 0.32935502) // 225
    (0.51425338 3.18839824 0.33582151) // 226
    (0.47493045 2.94154205 0.58978800) // 227
    (0.47243487 2.92587561 -0.16246027) // 228
    (0.47368266 2.93370883 0.08991386) // 229
    (0.39636379 2.44832682 0.36107896) // 230
    (0.43564712 2.69493444 0.35168348) // 231
    (0.23630069 2.97820530 0.85599474) // 232
    (0.27605817 3.47655900 0.34806176) // 233
    (0.25617943 3.22738215 0.35452825) // 234
    (0.23630069 2.97820530 0.60849474) // 235
    (0.23503911 2.96239158 -0.14375353) // 236
    (0.23566990 2.97029844 0.10862061) // 237
    (0.19658325 2.48035340 0.37978570) // 238
    (0.21644197 2.72927935 0.37039022) // 239
    (-0.00009696 2.99437876 0.87476481) // 240
    (0.00039555 3.49431558 0.36683183) // 241
    (0.00014930 3.24434717 0.37329832) // 242
    (-0.00009696 2.99437876 0.62726481) // 243
    (-0.00011259 2.97851480 -0.12498346) // 244
    (-0.00010477 2.98644678 0.12739068) // 245
    (-0.00058897 2.49494533 0.39855577) // 246
    (-0.00034296 2.74466204 0.38916029) // 247
    (-0.23426250 2.99006242 0.89359821) // 248
    (-0.27317021 3.48848319 0.38566523) // 249
    (-0.25371636 3.23927280 0.39213172) // 250
    (-0.23426250 2.99006242 0.64609821) // 251
    (-0.23302788 2.97424657 -0.10615006) // 252
    (-0.23364519 2.98215450 0.14622407) // 253
    (-0.19539396 2.49214353 0.41738917) // 254
    (-0.21482823 2.74110297 0.40799369) // 255
    (-0.46619593 2.96525630 0.91249493) // 256
    (-0.54439283 3.45903997 0.40456195) // 257
    (-0.50529438 3.21214813 0.41102844) // 258
    (-0.46619593 2.96525630 0.66499493) // 259
    (-0.46371459 2.94958759 -0.08725334) // 260
    (-0.46495526 2.95742194 0.16512079) // 261
    (-0.38807777 2.47196982 0.43628589) // 262
    (-0.42713685 2.71861306 0.42689041) // 263
    (-0.69589726 2.91996038 0.93145497) // 264
    (-0.81302258 3.40598376 0.42352199) // 265
    (-0.75445992 3.16297207 0.42998848) // 266
    (-0.69589726 2.91996038 0.68395497) // 267
    (-0.69218064 2.90453792 -0.06829330) // 268
    (-0.69403895 2.91224915 0.18408084) // 269
    (-0.57888987 2.43442638 0.45524593) // 270
    (-0.63739356 2.67719338 0.44585045) // 271
    (-0.92336647 2.85417467 0.95047834) // 272
    (-1.07880789 3.32933257 0.44254536) // 273
    (-1.00108718 3.09175362 0.44901185) // 274
    (-0.92336647 2.85417467 0.70297834) // 275
    (-0.91843401 2.83909699 -0.04926993) // 276
    (-0.92090024 2.84663583 0.20310420) // 277
    (-0.76808157 2.37949521 0.47426930) // 278
    (-0.84572402 2.61683494 0.46487382) // 279
    (-1.14860358 2.76789917 0.96956503) // 280
    (-1.34149695 3.22912494 0.46163205) // 281
    (-1.24505026 2.99851205 0.46809854) // 282
    (-1.14860358 2.76789917 0.72206503) // 283
    (-1.14248270 2.75326358 -0.03018324) // 284
    (-1.14554314 2.76058137 0.22219090) // 285
    (-0.95590443 2.30713781 0.49335599) // 286
    (-1.05225400 2.53751849 0.48396051) // 287
    (-1.37160857 2.66113387 0.98871505) // 288
    (-1.60083944 3.10542013 0.48078207) // 289
    (-1.48622401 2.88327700 0.48724856) // 290
    (-1.37160857 2.66113387 0.74121505) // 291
    (-1.36433464 2.64703581 -0.01103322) // 292
    (-1.36797160 2.65408484 0.24134091) // 293
    (-1.14260852 2.21729498 0.51250601) // 294
    (-1.25710855 2.43921442 0.50311053) // 295
    (-1.59019604 2.53530015 1.00791641) // 296
    (-1.85438150 2.95973285 0.49998343) // 297
    (-1.72228877 2.74751650 0.50644992) // 298
    (-1.59019604 2.53530015 0.76041641) // 299
    (-1.58181293 2.52183209 0.00816814) // 300
    (-1.58600448 2.52856612 0.26054228) // 301
    (-1.32627659 2.11129483 0.53170737) // 302
    (-1.45823632 2.32329749 0.52231189) // 303
    (-1.79427458 2.39696130 1.02711383) // 304
    (-2.09169988 2.79880115 0.51918085) // 305
    (-1.94298723 2.59788122 0.52564734) // 306
    (-1.79427458 2.39696130 0.77961383) // 307
    (-1.78483670 2.38421015 0.02736556) // 308
    (-1.78955564 2.39058573 0.27973970) // 309
    (-1.49714877 1.99552607 0.55090479) // 310
    (-1.64571168 2.19624369 0.54150931) // 311
    (-1.98258190 2.24693830 1.04630038) // 312
    (-2.31130765 2.62360320 0.53836740) // 313
    (-2.14694477 2.43527075 0.54483389) // 314
    (-1.98258190 2.24693830 0.79880038) // 315
    (-1.97215080 2.23498600 0.04655211) // 316
    (-1.97736635 2.24096215 0.29892625) // 317
    (-1.65418714 1.87065267 0.57009134) // 318
    (-1.81838452 2.05879548 0.56069586) // 319
    (-2.15511799 2.08523114 1.06547607) // 320
    (-2.51300619 2.43430578 0.55754309) // 321
    (-2.33406209 2.25976846 0.56400958) // 322
    (-2.15511799 2.08523114 0.81797607) // 323
    (-2.14376151 2.07415433 0.06572780) // 324
    (-2.14943975 2.07969274 0.31810194) // 325
    (-1.79759015 1.73650799 0.58926703) // 326
    (-1.97635407 1.91086957 0.57987155) // 327
    (-2.31188285 1.91183984 1.08464090) // 328
    (-2.69661120 2.23109079 0.57670791) // 329
    (-2.50424702 2.07146531 0.58317441) // 330
    (-2.31188285 1.91183984 0.83714090) // 331
    (-2.29967468 1.90170939 0.08489263) // 332
    (-2.30577877 1.90677461 0.33726676) // 333
    (-1.92754190 1.59291035 0.60843185) // 334
    (-2.11971237 1.75237509 0.59903638) // 335
    (-2.45287649 1.72676438 1.10379486) // 336
    (-2.86195386 2.01415396 0.59586187) // 337
    (-2.65741518 1.87045917 0.60232836) // 338
    (-2.45287649 1.72676438 0.85629486) // 339
    (-2.43989568 1.71764496 0.10404658) // 340
    (-2.44638608 1.72220467 0.35642072) // 341
    (-2.04421102 1.43966418 0.62758581) // 342
    (-2.24854376 1.58321428 0.61819033) // 343
    (-2.57809890 1.53000477 1.12293795) // 344
    (-3.00888187 1.78370361 0.61500497) // 345
    (-2.79349039 1.65685419 0.62147146) // 346
    (-2.57809890 1.53000477 0.87543795) // 347
    (-2.56442933 1.52195442 0.12318968) // 348
    (-2.57126412 1.52597960 0.37556381) // 349
    (-2.14774969 1.27656139 0.64672891) // 350
    (-2.36292430 1.40328308 0.63733343) // 351
    (-2.68755009 1.32156101 1.14207018) // 352
    (-3.13726033 1.53995919 0.63413720) // 353
    (-2.91240521 1.43076010 0.64060369) // 354
    (-2.68755009 1.32156101 0.89457018) // 355
    (-2.67327992 1.31463082 0.14232191) // 356
    (-2.68041500 1.31809591 0.39469604) // 357
    (-2.23829267 1.10338274 0.66586114) // 358
    (-2.46292138 1.21247187 0.65646566) // 359
    (-2.78123005 1.10143310 1.16119154) // 360
    (-3.24697255 1.28314990 0.65325856) // 361
    (-3.01410130 1.19229150 0.65972505) // 362
    (-2.78123005 1.10143310 0.91369154) // 363
    (-2.76645114 1.09566688 0.16144327) // 364
    (-2.77384060 1.09854999 0.41381741) // 365
    (-2.31595652 0.91989927 0.68498250) // 366
    (-2.54859329 1.01066619 0.67558702) // 367
    (-2.85913879 0.86962104 1.18030204) // 368
    (-3.33792072 1.01351311 0.67236906) // 369
    (-3.09852975 0.94156707 0.67883555) // 370
    (-2.85913879 0.86962104 0.93280204) // 371
    (-2.84394611 0.86505506 0.18055377) // 372
    (-2.85154245 0.86733805 0.43292791) // 373
    (-2.38083895 0.72587385 0.70409300) // 374
    (-2.61998887 0.79774744 0.69469752) // 375
    (-2.92123029 0.62632003 1.19940184) // 376
    (-3.40998056 0.73148772 0.69146886) // 377
    (-3.16560542 0.67890387 0.69793535) // 378
    (-2.92123029 0.62632003 0.95190184) // 379
    (-2.90572130 0.62298286 0.19965357) // 380
    (-2.91347579 0.62465144 0.45202770) // 381
    (-2.43297215 0.52125824 0.72319280) // 382
    (-2.67710122 0.57378913 0.71379732) // 383
    (-2.96520041 0.38130638 1.21849900) // 384
    (-3.46079156 0.44708236 0.71056602) // 385
    (-3.21299598 0.41419437 0.71703251) // 386
    (-2.96520041 0.38130638 0.97099900) // 387
    (-2.94947434 0.37921918 0.21875073) // 388
    (-2.95733738 0.38026278 0.47112486) // 389
    (-2.47010827 0.31559664 0.74228996) // 390
    (-2.71765434 0.34845151 0.73289448) // 391
    (-2.98976374 0.14003396 1.23759802) // 392
    (-3.48902635 0.16599365 0.72966504) // 393
    (-3.23939504 0.15301380 0.73613153) // 394
    (-2.98976374 0.14003396 0.99009802) // 395
    (-2.97392117 0.13921020 0.23784975) // 396
    (-2.98184245 0.13962208 0.49022389) // 397
    (-2.49100383 0.11410040 0.76138898) // 398
    (-2.74038378 0.12706718 0.75199350) // 399
    (-2.99492028 -0.09749725 1.25669891) // 400
    (-3.49466053 -0.11152381 0.74876593) // 401
    (-3.24479040 -0.10451053 0.75523242) // 402
    (-2.99492028 -0.09749725 1.00919891) // 403
    (-2.97906255 -0.09705216 0.25695064) // 404
    (-2.98699142 -0.09727471 0.50932478) // 405
    (-2.49568322 -0.08348482 0.78048987) // 406
    (-2.74530175 -0.09049104 0.77109439) // 407
    (-2.98067003 -0.33128725 1.27580166) // 408
    (-3.47769010 -0.38521419 0.76786868) // 409
    (-3.22918006 -0.35825072 0.77433517) // 410
    (-2.98067003 -0.33128725 1.02830166) // 411
    (-2.96489862 -0.32957604 0.27605339) // 412
    (-2.97278433 -0.33043164 0.52842753) // 413
    (-2.48415041 -0.27741460 0.79959262) // 414
    (-2.73241022 -0.30435092 0.79019714) // 415
    (-2.94701299 -0.56133602 1.29490628) // 416
    (-3.43813153 -0.65482209 0.78697330) // 417
    (-3.19257226 -0.60807905 0.79343979) // 418
    (-2.94701299 -0.56133602 1.04740628) // 419
    (-2.93142885 -0.55836953 0.29515801) // 420
    (-2.93922092 -0.55985277 0.54753214) // 421
    (-2.45638896 -0.46794408 0.81869724) // 422
    (-2.70170098 -0.51464005 0.80930176) // 423
    (-2.89394917 -0.78764357 1.31401276) // 424
    (-3.37602168 -0.92009416 0.80607978) // 425
    (-3.13498542 -0.85386887 0.81254627) // 426
    (-2.89394917 -0.78764357 1.06651276) // 427
    (-2.87865208 -0.78344066 0.31426449) // 428
    (-2.88630062 -0.78554212 0.56663862) // 429
    (-2.41236206 -0.65532635 0.83780372) // 430
    (-2.65315561 -0.72148496 0.82840824) // 431
    (-2.82147855 -1.01020991 1.33312110) // 432
    (-3.29141754 -1.18078076 0.82518812) // 433
    (-3.05644805 -1.09549533 0.83165461) // 434
    (-2.82147855 -1.01020991 1.08562110) // 435
    (-2.80656648 -1.00479737 0.33337283) // 436
    (-2.81402252 -1.00750364 0.58574697) // 437
    (-2.35201275 -0.83981082 0.85691206) // 438
    (-2.58674565 -0.92501036 0.84751658) // 439
    (-2.72960115 -1.22903503 1.35223131) // 440
    (-3.18439592 -1.43663750 0.84429833) // 441
    (-2.95699853 -1.33283627 0.85076482) // 442
    (-2.72960115 -1.22903503 1.10473131) // 443
    (-2.71516963 -1.22244740 0.35248304) // 444
    (-2.72238539 -1.22574122 0.60485718) // 445
    (-2.27526432 -1.02164160 0.87602227) // 446
    (-2.50243273 -1.12533832 0.86662679) // 447
    (-2.61831696 -1.44411893 1.37134339) // 448
    (-3.05505294 -1.68742687 0.86341040) // 449
    (-2.83668495 -1.56577290 0.86987689) // 450
    (-2.61831696 -1.44411893 1.12384339) // 451
    (-2.60445848 -1.43639830 0.37159511) // 452
    (-2.61138772 -1.44025862 0.62396925) // 453
    (-2.18202074 -1.20105598 0.89513434) // 454
    (-2.40016885 -1.32258746 0.88573886) // 455
    (-2.48762598 -1.65546162 1.39045732) // 456
    (-2.90350344 -1.93291974 0.88252434) // 457
    (-2.69556471 -1.79419068 0.88899083) // 458
    (-2.48762598 -1.65546162 1.14295732) // 459
    (-2.47442938 -1.64665733 0.39070905) // 460
    (-2.48102768 -1.65105947 0.64308319) // 461
    (-2.07216727 -1.37828287 0.91424828) // 462
    (-2.27989663 -1.51687224 0.90485280) // 463
    (-2.34010248 -1.85936412 1.40957251) // 464
    (-2.73245532 -2.16919684 0.90163953) // 465
    (-2.53627890 -2.01428048 0.90810602) // 466
    (-2.34010248 -1.85936412 1.16207251) // 467
    (-2.32765237 -1.84953253 0.40982424) // 468
    (-2.33387742 -1.85444832 0.66219837) // 469
    (-1.94814470 -1.54984337 0.93336347) // 470
    (-2.14412359 -1.70460375 0.92396799) // 471
    (-2.18203912 -2.04678453 1.42868744) // 472
    (-2.54835363 -2.38700615 0.92075446) // 473
    (-2.36519637 -2.21689534 0.92722095) // 474
    (-2.18203912 -2.04678453 1.18118744) // 475
    (-2.17041525 -2.03598864 0.42893917) // 476
    (-2.17622719 -2.04138659 0.68131331) // 477
    (-1.81609346 -1.70690549 0.95247840) // 478
    (-1.99906629 -1.87684501 0.94308292) // 479
    (-2.01372193 -2.21731185 1.44780206) // 480
    (-2.35165142 -2.58574193 0.93986908) // 481
    (-2.18268668 -2.40152689 0.94633557) // 482
    (-2.01372193 -2.21731185 1.20030206) // 483
    (-2.00299877 -2.20562086 0.44805379) // 484
    (-2.00836035 -2.21146636 0.70042792) // 485
    (-1.67613270 -1.84925275 0.97159302) // 486
    (-1.84492731 -2.03328230 0.96219754) // 487
    (-1.83515090 -2.37094609 1.46691635) // 488
    (-2.14253069 -2.76522358 0.95898337) // 489
    (-1.98884080 -2.56808483 0.96544986) // 490
    (-1.83515090 -2.37094609 1.21941635) // 491
    (-1.82539715 -2.35843491 0.46716808) // 492
    (-1.83027403 -2.36469050 0.71954222) // 493
    (-1.52808062 -1.97706561 0.99070731) // 494
    (-1.68161576 -2.17400585 0.98131183) // 495
    (-1.64632605 -2.50768724 1.48603033) // 496
    (-1.92118728 -2.92528558 0.97809735) // 497
    (-1.78375666 -2.71648641 0.98456384) // 498
    (-1.64632605 -2.50768724 1.23853033) // 499
    (-1.63760417 -2.49443604 0.48628206) // 500
    (-1.64196511 -2.50106164 0.73865619) // 501
    (-1.37174159 -2.09050939 1.00982129) // 502
    (-1.50903382 -2.29909832 1.00042581) // 503
    (-1.44724737 -2.62753531 1.50514399) // 504
    (-1.68782961 -3.06577868 0.99721100) // 505
    (-1.56753849 -2.84665699 1.00367749) // 506
    (-1.44724737 -2.62753531 1.25764399) // 507
    (-1.43961323 -2.61362900 0.50539571) // 508
    (-1.44343030 -2.62058216 0.75776985) // 509
    (-1.20690737 -2.18973321 1.02893494) // 510
    (-1.32707737 -2.40863426 1.01953946) // 511
    (-1.23791485 -2.73049029 1.52425732) // 512
    (-1.44267740 -3.18657073 1.01632434) // 513
    (-1.34029612 -2.95853051 1.02279083) // 514
    (-1.23791485 -2.73049029 1.27675732) // 515
    (-1.23141734 -2.71601798 0.52450905) // 516
    (-1.23466610 -2.72325413 0.77688319) // 517
    (-1.03335848 -2.27486908 1.04804828) // 518
    (-1.13563667 -2.50267968 1.03865280) // 519
    (-1.01832850 -2.81655218 1.54337034) // 520
    (-1.18596017 -3.28754761 1.03543735) // 521
    (-1.10214434 -3.05204989 1.04190385) // 522
    (-1.01832850 -2.81655218 1.29587034) // 523
    (-1.01300923 -2.80160659 0.54362207) // 524
    (-1.01566887 -2.80907938 0.79599620) // 525
    (-0.85086562 -2.34603101 1.06716129) // 526
    (-0.93459706 -2.58129159 1.05776582) // 527
    (-0.78848833 -2.88572099 1.56248303) // 528
    (-0.91791588 -3.36861391 1.05455005) // 529
    (-0.85320210 -3.12716745 1.06101654) // 530
    (-0.78848833 -2.88572099 1.31498303) // 531
    (-0.78438134 -2.87039786 0.56273476) // 532
    (-0.78643483 -2.87805942 0.81510890) // 533
    (-0.65919109 -2.40331429 1.08627399) // 534
    (-0.72383971 -2.64451764 1.07687851) // 535
    (-0.54839432 -2.93799670 1.58159541) // 536
    (-0.63878929 -3.42969358 1.07366243) // 537
    (-0.59359181 -3.18384514 1.08012892) // 538
    (-0.54839432 -2.93799670 1.33409541) // 539
    (-0.54552591 -2.92239421 0.58184714) // 540
    (-0.54696011 -2.93019546 0.83422127) // 541
    (-0.45809036 -2.44679493 1.10538637) // 542
    (-0.50324234 -2.69239582 1.09599089) // 543
    (-0.29896800 -2.97326001 1.60070749) // 544
    (-0.34975197 -3.47061105 1.09277451) // 545
    (-0.32435998 -3.22193553 1.09924100) // 546
    (-0.29896800 -2.97326001 1.35320749) // 547
    (-0.29735652 -2.95747810 0.60095922) // 548
    (-0.29816226 -2.96536906 0.85333335) // 549
    (-0.24823516 -2.47640976 1.12449845) // 550
    (-0.27360158 -2.72483489 1.11510297) // 551
    (-0.05170178 -2.99002279 1.61981954) // 552
    (-0.06254949 -3.48984215 1.11188656) // 553
    (-0.05712564 -3.23993247 1.11835305) // 554
    (-0.05170178 -2.99002279 1.37231954) // 555
    (-0.05135756 -2.97416256 0.62007127) // 556
    (-0.05152967 -2.98209267 0.87244540) // 557
    (-0.04086499 -2.49070670 1.14361050) // 558
    (-0.04628338 -2.74036475 1.13421502) // 559
    (0.18995989 -2.98783903 1.63893165) // 560
    (0.21911803 -3.48692507 1.13099866) // 561
    (0.20453896 -3.23738205 1.13746516) // 562
    (0.18995989 -2.98783903 1.39143165) // 563
    (0.18903465 -2.97200207 0.63918337) // 564
    (0.18949727 -2.97992055 0.89155751) // 565
    (0.16083111 -2.48925553 1.16272260) // 566
    (0.17539550 -2.73854728 1.15332713) // 567
    (0.42601702 -2.96670874 1.65804381) // 568
    (0.49499435 -3.46186446 1.15011083) // 569
    (0.46050569 -3.21428660 1.15657732) // 570
    (0.42601702 -2.96670874 1.41054381) // 571
    (0.42382823 -2.95099649 0.65829554) // 572
    (0.42492263 -2.95885261 0.91066967) // 573
    (0.35710914 -2.47205159 1.18183477) // 574
    (0.39156308 -2.71938016 1.17243929) // 575
    (0.65646960 -2.92663190 1.67715602) // 576
    (0.76482439 -3.41468549 1.16922304) // 577
    (0.71064700 -3.17065870 1.17568953) // 578
    (0.65646960 -2.92663190 1.42965602) // 579
    (0.65303129 -2.91114502 0.67740775) // 580
    (0.65475044 -2.91888846 0.92978189) // 581
    (0.54822391 -2.43906974 1.20094698) // 582
    (0.60234675 -2.68285082 1.19155150) // 583
    (0.88131763 -2.86760853 1.69626830) // 584
    (1.02835591 -3.34543362 1.18833531) // 585
    (0.95483677 -3.10652107 1.19480180) // 586
    (0.88131763 -2.86760853 1.44876830) // 587
    (0.87665182 -2.85244622 0.69652002) // 588
    (0.87898473 -2.86002737 0.94889416) // 589
    (0.73442741 -2.39026457 1.22005925) // 590
    (0.80787252 -2.62893655 1.21066377) // 591
    (1.10056112 -2.78963862 1.71538062) // 592
    (1.28534109 -3.25417433 1.20744764) // 593
    (1.19295111 -3.02190648 1.21391413) // 594
    (1.10056112 -2.78963862 1.46788062) // 595
    (1.09469770 -2.77489800 0.71563235) // 596
    (1.09762941 -2.78226831 0.96800649) // 597
    (0.91596721 -2.32557065 1.23917158) // 598
    (1.00826416 -2.55760464 1.22977610) // 599
    (1.31420006 -2.69272217 1.73449300) // 600
    (1.53553817 -3.14099275 1.22656002) // 601
    (1.42486912 -2.91685746 1.23302651) // 602
    (1.31420006 -2.69272217 1.48699300) // 603
    (1.30717658 -2.67849768 0.73474473) // 604
    (1.31068832 -2.68560993 0.98711887) // 605
    (1.09308482 -2.24490297 1.25828396) // 606
    (1.20364244 -2.46881257 1.24888848) // 607
    (1.52223446 -2.57685918 1.75360544) // 608
    (1.77871295 -3.00599302 1.24567246) // 609
    (1.65047371 -2.79142610 1.25213895) // 610
    (1.52223446 -2.57685918 1.50610544) // 611
    (1.51409590 -2.56324194 0.75385717) // 612
    (1.51816518 -2.57005056 1.00623130) // 613