/*--------------------------------*- C++ -*----------------------------------*\
| =========                 |                                                 |
| \\      /  F ield         | OpenFOAM: The Open Source CFD Toolbox           |
|  \\    /   O peration     | Version:  v1806                                 |
|   \\  /    A nd           | Web:      www.OpenFOAM.com                      |
|    \\/     M anipulation  |                                                 |
\*---------------------------------------------------------------------------*/
FoamFile
{
    version     2.0;
    format      ascii;
    class       dictionary;
    object      blockMeshDict;
}
// * * * * * * * * * * * * * * * * * * * * * * * * * * * * * * * * * * * * * //

scale   1;

// the updated blockMesh (openfoam.com) fails on some meshes with default options;
// it reports report inconsistent number of faces although the mesh is still OK.
// this happens where two 'wedge' blocks with different numbers of cells join in the same
// point/edge.
mergeType points;
checkFaceCorrespondence false;



vertices
(
    
    (0.00000000 0.00000000 1.00000000) // 0
    (0.99987413 0.00000000 -0.01586596) // 1
    (0.49993706 0.00000000 -0.00293298) // 2
    (0.00000000 0.00000000 0.50500000) // 3
    (-0.08491955 0.88739807 1.06079027) // 4
    (0.91185296 0.96609270 0.04492431) // 5
    (0.41346671 0.92674539 0.05785729) // 6
    (-0.08491955 0.88739807 0.56579027) // 7
    (-0.03172793 0.00000000 -0.99949654) // 8
    (-0.01586397 0.00000000 -0.49474827) // 9
    (-0.11654906 0.88490094 -0.93870627) // 10
    (-0.10073430 0.88614950 -0.43395800) // 11
    (-0.99886734 0.00000000 0.04758192) // 12
    (-0.49943367 0.00000000 0.02879096) // 13
    (-1.08068839 0.80878268 0.10837219) // 14
    (-0.58280397 0.84809037 0.08958123) // 15
    (-0.21662720 1.73538869 1.12158055) // 16
    (0.77085968 1.89228973 0.10571458) // 17
    (0.27711624 1.81383921 0.11864757) // 18
    (-0.21662720 1.73538869 0.62658055) // 19
    (-0.24796206 1.73040991 -0.87791600) // 20
    (-0.23229463 1.73289930 -0.37316772) // 21
    (-1.20311976 1.57864563 0.16916246) // 22
    (-0.70987348 1.65701716 0.15037151) // 23
    (-0.39512296 2.54397185 1.18237082) // 24
    (0.57695189 2.77810589 0.16650486) // 25
    (0.09091447 2.66103887 0.17943784) // 26
    (-0.39512296 2.54397185 0.68737082) // 27
    (-0.42596877 2.53654232 -0.81712572) // 28
    (-0.41054587 2.54025709 -0.31237745) // 29
    (-1.36621902 2.31007357 0.22995274) // 30
    (-0.88067099 2.42702271 0.21116178) // 31
    (-0.62040683 3.31314756 1.24316109) // 32
    (0.33022522 3.62306201 0.22729513) // 33
    (-0.14509080 3.46810478 0.24022811) // 34
    (-0.62040683 3.31314756 0.74816109) // 35
    (-0.65057222 3.30331337 -0.75633545) // 36
    (-0.63548953 3.30823046 -0.25158718) // 37
    (-1.57008168 3.00354516 0.29074301) // 38
    (-1.09524426 3.15834636 0.27195205) // 39
    (-0.89247881 4.04291581 1.30395137) // 40
    (0.03081270 4.42668796 0.28808540) // 41
    (-0.43083306 4.23480189 0.30101839) // 42
    (-0.89247881 4.04291581 0.80895137) // 43
    (-0.92177663 4.03073798 -0.69554517) // 44
    (-0.90712772 4.03682689 -0.19079690) // 45
    (-1.81484064 3.65953008 0.35153328) // 46
    (-1.35365972 3.85122294 0.33274233) // 47
    (-1.21133889 4.73327661 1.36474164) // 48
    (-0.32111606 5.18852553 0.34887568) // 49
    (-0.76622748 4.96090107 0.36180866) // 50
    (-1.21133889 4.73327661 0.86974164) // 51
    (-1.23958738 4.71883068 -0.63475490) // 52
    (-1.22546314 4.72605364 -0.13000663) // 53
    (-2.10066535 4.27848608 0.41232356) // 54
    (-1.65600212 4.50588134 0.39353260) // 55
    (-1.57698709 5.38422995 1.42553191) // 56
    (-0.72535589 5.90813126 0.40966595) // 57
    (-1.15117149 5.64618060 0.42259893) // 58
    (-1.57698709 5.38422995 0.93053191) // 59
    (-1.60401099 5.36760555 -0.57396463) // 60
    (-1.59049904 5.37591775 -0.06921636) // 61
    (-2.42776076 4.86085616 0.47311383) // 62
    (-2.00237392 5.12254305 0.45432287) // 63
    (-1.98942339 5.99577584 1.48632219) // 64
    (-1.18166738 6.58507924 0.47045622) // 65
    (-1.58554538 6.29042754 0.48338921) // 66
    (-1.98942339 5.99577584 0.99132219) // 67
    (-2.01505504 5.97707610 -0.51317435) // 68
    (-2.00223921 5.98642597 -0.00842608) // 69
    (-2.79636605 5.40706581 0.53390410) // 70
    (-2.39289472 5.70142082 0.51511315) // 71
    (-2.44864779 6.56791427 1.54711246) // 72
    (-1.68977831 7.21896371 0.53124650) // 73
    (-2.06921305 6.89343899 0.54417948) // 74
    (-2.44864779 6.56791427 1.05211246) // 75
    (-2.47272818 6.54725522 -0.45238408) // 76
    (-2.46068799 6.55758474 0.05236419) // 77
    (-3.20675316 5.91752038 0.59469438) // 78
    (-2.82770048 6.24271732 0.57590342) // 79
    (-2.95466031 7.10064525 1.60790274) // 80
    (-2.24938540 7.80940160 0.59203677) // 81
    (-2.60202285 7.45502343 0.60496975) // 82
    (-2.95466031 7.10064525 1.11290274) // 83
    (-2.97704004 7.07815504 -0.39159381) // 84
    (-2.96585017 7.08940015 0.11315446) // 85
    (-3.65922507 6.39260255 0.65548465) // 86
    (-3.30694269 6.74662390 0.63669369) // 87
    (-3.50746093 7.59396877 1.66869301) // 88
    (-2.86015613 8.35603489 0.65282705) // 89
    (-3.18380853 7.97500183 0.66576003) // 90
    (-3.50746093 7.59396877 1.17369301) // 91
    (-3.52800116 7.56978695 -0.33080353) // 92
    (-3.51773105 7.58187786 0.17394474) // 93
    (-4.15411395 6.83266999 0.71627492) // 94
    (-3.83078744 7.21331938 0.69748397) // 95
    (-4.10704966 8.04788484 1.72948328) // 96
    (-3.52173088 8.85853285 0.71361732) // 97
    (-3.81439027 8.45320885 0.72655030) // 98
    (-4.10704966 8.04788484 1.23448328) // 99
    (-4.12562296 8.02216142 -0.27001326) // 100
    (-4.11633631 8.03502313 0.23473501) // 101
    (-4.69177908 7.23805309 0.77706520) // 102
    (-4.39941437 7.64296897 0.75827424) // 103
    (-4.75342650 8.46239346 1.79027356) // 104
    (-4.23372506 9.31659407 0.77440759) // 105
    (-4.49357578 8.88949376 0.78734057) // 106
    (-4.75342650 8.46239346 1.29527356) // 107
    (-4.76991763 8.43528803 -0.20922299) // 108
    (-4.76167206 8.44884074 0.29552529) // 109
    (-5.27260464 7.60905295 0.83785547) // 110
    (-5.01301557 8.03572320 0.81906451) // 111
    (-5.44659145 8.83749462 1.85106383) // 112
    (-4.99573160 9.72994835 0.83519787) // 113
    (-5.22116152 9.28372148 0.84813085) // 114
    (-5.44659145 8.83749462 1.35606383) // 115
    (-5.46089810 8.80917534 -0.14843271) // 116
    (-5.45374477 8.82333498 0.35631556) // 117
    (-5.89699732 7.94593951 0.89864575) // 118
    (-5.67179438 8.39171706 0.87985479) // 119
    (-6.18654450 9.17318832 1.91185410) // 120
    (-5.80732338 10.09835837 0.89598814) // 121
    (-5.99693394 9.63577335 0.90892112) // 122
    (-6.18654450 9.17318832 1.41685410) // 123
    (-6.19857792 9.14383089 -0.08764244) // 124
    (-6.19256121 9.15850961 0.41710583) // 125
    (-6.56538377 8.24894984 0.95943602) // 126
    (-6.37596414 8.71106908 0.94064506) // 127
    (-6.96523708 9.46543213 1.97264438) // 128
    (-6.66000740 10.41757872 0.95677841) // 129
    (-6.81262224 9.94150543 0.96971139) // 130
    (-6.96523708 9.46543213 1.47764438) // 131
    (-6.97492261 9.43521869 -0.02685217) // 132
    (-6.97007984 9.45032541 0.47789611) // 133
    (-7.27015942 8.51424428 1.02022629) // 134
    (-7.11769825 8.98983821 1.00143533) // 135
    (-7.74499526 9.69530414 2.03343465) // 136
    (-7.51565066 10.66852011 1.01756869) // 137
    (-7.63032296 10.18191213 1.03050167) // 138
    (-7.74499526 9.69530414 1.53843465) // 139
    (-7.75227281 9.66442212 0.03393811) // 140
    (-7.74863403 9.67986313 0.53868638) // 141
    (-7.97410893 8.72306812 1.08101657) // 142
    (-7.85955210 9.20918613 1.06222561) // 143
    (-8.52102932 9.86039868 2.09422492) // 144
    (-8.36899267 10.84864619 1.07835896) // 145
    (-8.44501099 10.35452243 1.09129194) // 146
    (-8.52102932 9.86039868 1.59922492) // 147
    (-8.52585373 9.82903968 0.09472838) // 148
    (-8.52344153 9.84471918 0.59947665) // 149
    (-8.67291288 8.87314626 1.14180684) // 150
    (-8.59697110 9.36677247 1.12301588) // 151
    (-9.29333925 9.96071575 2.15501520) // 152
    (-9.21955378 10.95786367 1.13914923) // 153
    (-9.25644651 10.45928971 1.15208222) // 154
    (-9.29333925 9.96071575 1.66001520) // 155
    (-9.29568060 9.92907433 0.15551866) // 156
    (-9.29450992 9.94489504 0.66026693) // 157
    (-9.36705042 8.96457188 1.20259711) // 158
    (-9.33019483 9.46264382 1.18380616) // 159
    (-10.06192505 9.99625536 2.21580547) // 160
    (-10.06684854 10.99611736 1.19993951) // 161
    (-10.06438679 10.49618636 1.21287249) // 162
    (-10.06192505 9.99625536 1.72080547) // 163
    (-10.06176882 9.96452781 0.21630893) // 164
    (-10.06184693 9.98039158 0.72105720) // 165
    (-10.05700652 8.99740013 1.26338739) // 166
    (-10.05946579 9.49682774 1.24459643) // 167
    (-10.82678673 9.96701749 2.27659574) // 168
    (-10.91038862 10.96339041 1.26072978) // 169
    (-10.86858768 10.46520395 1.27366276) // 170
    (-10.82678673 9.96701749 1.78159574) // 171
    (-10.82413388 9.93540066 0.27709920) // 172
    (-10.82546030 9.95120908 0.78184747) // 173
    (-10.74326901 8.97164784 1.32417766) // 174
    (-10.78502787 9.46933266 1.30538670) // 175
    (-11.58792428 9.87300216 2.33738602) // 176
    (-11.74968591 10.85970447 1.32152005) // 177
    (-11.66880510 10.36635331 1.33445304) // 178
    (-11.58792428 9.87300216 1.84238602) // 179
    (-11.58279127 9.84169219 0.33788948) // 180
    (-11.58535778 9.85734718 0.84263775) // 181
    (-11.42632553 8.88729338 1.38496793) // 182
    (-11.50712490 9.38014777 1.36617698) // 183
    (-12.34533771 9.71420936 2.39817629) // 184
    (-12.58425550 10.68511953 1.38231033) // 185
    (-12.46479661 10.19966444 1.39524331) // 186
    (-12.34533771 9.71420936 1.90317629) // 187
    (-12.33775638 9.68340051 0.39867975) // 188
    (-12.34154705 9.69880493 0.90342802) // 189
    (-12.10666048 8.74427681 1.44575821) // 190
    (-12.22599909 9.22924309 1.42696725) // 191
    (-13.09902701 9.49063909 2.45896657) // 192
    (-13.41361872 10.43973357 1.44310060) // 193
    (-13.25632286 9.96518633 1.45603358) // 194
    (-13.09902701 9.49063909 1.96396657) // 195
    (-13.08904441 9.46052249 0.45947002) // 196
    (-13.09403571 9.47558079 0.96421829) // 197
    (-12.78475206 8.54250027 1.50654848) // 198
    (-12.94188954 9.01656968 1.48775752) // 199
    (-13.84899218 9.20229136 2.51975684) // 200
    (-14.23730607 10.12368193 1.50389088) // 201
    (-14.04314913 9.66298664 1.51682386) // 202
    (-13.84899218 9.20229136 2.02475684) // 203
    (-13.83667023 9.17305386 0.52026030) // 204
    (-13.84283121 9.18767261 1.02500857) // 205
    (-13.46106929 8.28182854 1.56733875) // 206
    (-13.65503074 8.74205995 1.54854780) // 207
    (-14.59355957 8.85004896 2.58054711) // 208
    (-15.05318653 9.73801931 1.56468115) // 209
    (-14.82337305 9.29403413 1.57761413) // 210
    (-14.59355957 8.85004896 2.08554711) // 211
    (-14.57897472 8.82187195 0.58105057) // 212
    (-14.58626715 8.83596046 1.08579884) // 213
    (-14.13439542 7.96297273 1.62812903) // 214
    (-14.36397750 8.40651084 1.60933807) // 215
    (-15.30160728 8.45032792 2.64133739) // 216
    (-15.82969577 9.29936904 1.62547142) // 217
    (-15.56565153 8.87484848 1.63840440) // 218
    (-15.30160728 8.45032792 2.14633739) // 219
    (-15.28485002 8.42338621 0.64184084) // 220
    (-15.29322865 8.43685707 1.14658911) // 221
    (-14.77405054 7.60214171 1.68891930) // 222
    (-15.03782891 8.02623482 1.67012834) // 223
    (-15.96140814 8.00931402 2.70212766) // 224
    (-16.55468188 8.81415844 1.68626170) // 225
    (-16.25804501 8.41173623 1.69919468) // 226
    (-15.96140814 8.00931402 2.20712766) // 227
    (-15.94258242 7.98377476 0.70263112) // 228
    (-15.95199528 7.99654439 1.20737939) // 229
    (-15.36873178 7.20528001 1.74970958) // 230
    (-15.66506996 7.60729702 1.73091862) // 231
    (-16.57296214 7.52700726 2.76291793) // 232
    (-17.22774044 8.28266171 1.74705197) // 233
    (-16.90035129 7.90483449 1.75998495) // 234
    (-16.57296214 7.52700726 2.26791793) // 235
    (-16.55218476 7.50302889 0.76342139) // 236
    (-16.56257345 7.51501808 1.26816966) // 237
    (-15.91884314 6.77211370 1.81049985) // 238
    (-16.24590264 7.14956048 1.79170889) // 239
    (-17.13626927 7.00340765 2.82370821) // 240
    (-17.84848988 7.70518402 1.80784224) // 241
    (-17.49237958 7.35429583 1.82077522) // 242
    (-17.13626927 7.00340765 2.32870821) // 243
    (-17.11366914 6.98113893 0.82421166) // 244
    (-17.12496921 6.99227329 1.32895994) // 245
    (-16.42476581 6.30233791 1.87129012) // 246
    (-16.78051754 6.65287278 1.85249916) // 247
    (-17.65132956 6.43851517 2.88449848) // 248
    (-18.41657384 7.08205962 1.86863252) // 249
    (-18.03395170 6.76028740 1.88156550) // 250
    (-17.65132956 6.43851517 2.38949848) // 251
    (-17.62704688 6.41809426 0.88500194) // 252
    (-17.63918822 6.42830472 1.38975021) // 253
    (-16.88685581 5.79561871 1.93208040) // 254
    (-17.26909269 6.11706694 1.91328944) // 255
    (-18.11814298 5.83232983 2.94528875) // 256
    (-18.93166333 6.41364980 1.92942279) // 257
    (-18.52490316 6.12298982 1.94235577) // 258
    (-18.11814298 5.83232983 2.45028875) // 259
    (-18.09232841 5.81388343 0.94579221) // 260
    (-18.10523570 5.82310663 1.45054048) // 261
    (-17.30544178 5.25159520 1.99287067) // 262
    (-17.71179238 5.54196252 1.97407971) // 263
    (-18.53670955 5.18485164 3.00607903) // 264
    (-19.39345887 5.70034060 1.99021306) // 265
    (-18.96508421 5.44259612 2.00314605) // 266
    (-18.53670955 5.18485164 2.51107903) // 267
    (-18.50952324 5.16849418 1.00658248) // 268
    (-18.52311639 5.17667291 1.51133076) // 269
    (-17.68082290 4.66988173 2.05366094) // 270
    (-18.10876622 4.92736668 2.03486999) // 271
    (-18.90702926 4.49608058 3.06686930) // 272
    (-19.80169225 4.94254043 2.05100334) // 273
    (-19.35436076 4.71931051 2.06393632) // 274
    (-18.90702926 4.49608058 2.57186930) // 275
    (-18.87863988 4.48191355 1.06737276) // 276
    (-18.89283457 4.48899707 1.57212103) // 277
    (-18.01326711 4.05007028 2.11445122) // 278
    (-18.46014819 4.27307543 2.09566026) // 279
    (-19.22910211 3.76601667 3.12765957) // 280
    (-20.15612827 4.14067755 2.11179361) // 281
    (-19.69261519 3.95334711 2.12472659) // 282
    (-19.22910211 3.76601667 2.63265957) // 283
    (-19.19968578 3.75412796 1.12816303) // 284
    (-19.21439395 3.76007231 1.63291130) // 285
    (-18.30300939 3.39173304 2.17524149) // 286
    (-18.76605575 3.57887485 2.15645053) // 287
    (-19.50292811 2.99465989 3.18844985) // 288
    (-20.45656613 3.29519741 2.17258388) // 289
    (-19.97974712 3.14492865 2.18551687) // 290
    (-19.50292811 2.99465989 2.69344985) // 291
    (-19.47266733 2.98512326 1.18895331) // 292
    (-19.48779772 2.98989158 1.69370158) // 293
    (-18.55025032 2.69442500 2.23603176) // 294
    (-19.02658921 2.84454245 2.21724081) // 295
    (-19.72117939 2.20509859 3.24924012) // 296
    (-20.69551288 2.42964818 2.23337416) // 297
    (-20.20834614 2.31737339 2.24630714) // 298
    (-19.72117939 2.20509859 2.75424012) // 299
    (-19.69026191 2.19797320 1.24974358) // 300
    (-19.70572065 2.20153589 1.75449185) // 301
    (-18.74782697 1.98077509 2.29682204) // 302
    (-19.23450318 2.09293684 2.27803108) // 303
    (-19.87604564 1.42194126 3.31003040) // 304
    (-20.86502980 1.56910984 2.29416443) // 305
    (-20.37053772 1.49552555 2.30709741) // 306
    (-19.87604564 1.42194126 2.81503040) // 307
    (-19.84466326 1.41727132 1.31053385) // 308
    (-19.86035445 1.41960629 1.81528212) // 309
    (-18.88805729 1.27492088 2.35761231) // 310
    (-19.38205147 1.34843107 2.33882135) // 311
    (-19.96752487 0.64519413 3.37082067) // 312
    (-20.96502403 0.71406864 2.35495470) // 313
    (-20.46627445 0.67963139 2.36788769) // 314
    (-19.96752487 0.64519413 2.87582067) // 315
    (-19.93587230 0.64300861 1.37132413) // 316
    (-19.95169858 0.64410137 1.87607240) // 317
    (-18.97103011 0.57638898 2.41840258) // 318
    (-19.46927749 0.61079155 2.39961163) // 319
    (-19.99561709 -0.12514281 3.43161094) // 320
    (-20.99544273 -0.13498966 2.41574498) // 321
    (-20.49552991 -0.13006623 2.42867796) // 322
    (-19.99561709 -0.12514281 2.93661094) // 323
    (-19.96389069 -0.12483035 1.43211440) // 324
    (-19.97975389 -0.12498658 1.93686267) // 325
    (-18.99679819 -0.11530587 2.47919286) // 326
    (-19.49620764 -0.12022434 2.46040190) // 327
    (-19.96032229 -0.88906956 3.49240122) // 328
    (-20.95627147 -0.97757668 2.47653525) // 329
    (-20.45829688 -0.93332312 2.48946823) // 330
    (-19.96032229 -0.88906956 2.99740122) // 331
    (-19.92871890 -0.88626106 1.49290467) // 332
    (-19.94452060 -0.88766531 1.99765294) // 333
    (-18.96537595 -0.80065155 2.53998313) // 334
    (-19.46284912 -0.84486055 2.52119217) // 335
    (-19.86164048 -1.64658612 3.55319149) // 336
    (-20.84753430 -1.81320442 2.53732553) // 337
    (-20.35458739 -1.72989527 2.55025851) // 338
    (-19.86164048 -1.64658612 3.05819149) // 339
    (-19.83035617 -1.64129900 1.55369495) // 340
    (-19.84599833 -1.64394256 2.05844322) // 341
    (-18.87673938 -1.48013559 2.60077341) // 342
    (-19.36918993 -1.56336085 2.58198245) // 343
    (-19.69957166 -2.39769249 3.61398176) // 344
    (-20.66929361 -2.64138825 2.59811580) // 345
    (-20.18443264 -2.51954037 2.61104878) // 346
    (-19.69957166 -2.39769249 3.11898176) // 347
    (-19.66880052 -2.38995955 1.61448522) // 348
    (-19.68418609 -2.39382602 2.11923349) // 349
    (-18.73082615 -2.15424210 2.66156368) // 350
    (-19.21519891 -2.27596730 2.64277272) // 351
    (-19.47411583 -3.14238867 3.67477204) // 352
    (-20.42164972 -3.46165001 2.65890607) // 353
    (-19.94788278 -3.30201934 2.67183905) // 354
    (-19.47411583 -3.14238867 3.17977204) // 355
    (-19.44404875 -3.13225789 1.67527549) // 356
    (-19.45908229 -3.13732328 2.18002377) // 357
    (-18.52753603 -2.82344880 2.72235395) // 358
    (-19.00082593 -2.98291873 2.70356299) // 359
    (-19.18527299 -3.88067466 3.73556231) // 360
    (-20.10474029 -4.27352086 2.71969635) // 361
    (-19.64500664 -4.07709776 2.73262933) // 362
    (-19.18527299 -3.88067466 3.24056231) // 363
    (-19.15609652 -3.86820889 1.73606577) // 364
    (-19.17068475 -3.87444177 2.24081404) // 365
    (-18.26673150 -3.48822401 2.78314423) // 366
    (-18.72600224 -3.68444934 2.76435327) // 367
    (-18.83304313 -4.61255045 3.79635258) // 368
    (-19.71873946 -5.07654430 2.78048662) // 369
    (-19.27589129 -4.84454738 2.79341960) // 370
    (-18.83304313 -4.61255045 3.30135258) // 371
    (-18.80493828 -4.59782704 1.79685604) // 372
    (-18.81899070 -4.60518875 2.30160431) // 373
    (-17.94823862 -4.14902381 2.84393450) // 374
    (-18.39064087 -4.38078713 2.82514354) // 375
    (-18.42329430 -5.32744169 3.85714286) // 376
    (-19.26972476 -5.85970454 2.84127689) // 377
    (-18.84650953 -5.59357311 2.85420988) // 378
    (-18.42329430 -5.32744169 3.36214286) // 379
    (-18.39643543 -5.31055196 1.85764631) // 380
    (-18.40986487 -5.31899683 2.36239459) // 381
    (-17.57771612 -4.79571478 2.90472477) // 382
    (-18.00050521 -5.06157824 2.88593382) // 383
    (-17.97341166 -5.99401985 3.91793313) // 384
    (-18.77532498 -6.59124953 2.90206717) // 385
    (-18.37436832 -6.29263469 2.91500015) // 386
    (-17.97341166 -5.99401985 3.42293313) // 387
    (-17.94796540 -5.97506860 1.91843659) // 388
    (-17.96068853 -5.98454422 2.42318486) // 389
    (-17.17230580 -5.39739152 2.96551505) // 390
    (-17.57285873 -5.69570569 2.94672409) // 391
    (-17.48454088 -6.61022038 3.97872340) // 392
    (-18.23696197 -7.26871167 2.96285744) // 393
    (-17.86075143 -6.93946603 2.97579042) // 394
    (-17.48454088 -6.61022038 3.48372340) // 395
    (-17.46066511 -6.58932519 1.97922686) // 396
    (-17.47260300 -6.59977278 2.48397513) // 397
    (-16.73287742 -5.95239214 3.02630532) // 398
    (-17.10870915 -6.28130626 3.00751436) // 399
    (-16.95668198 -7.17604330 4.03951368) // 400
    (-17.65494279 -7.89171089 3.02364771) // 401
    (-17.30581238 -7.53387709 3.03658070) // 402
    (-16.95668198 -7.17604330 3.54451368) // 403
    (-16.93452481 -7.15333378 2.04001714) // 404
    (-16.94560340 -7.16468854 2.54476541) // 405
    (-16.25912425 -6.46109631 3.08709559) // 406
    (-16.60790311 -6.81856981 3.06830464) // 407
    (-16.38983493 -7.69148858 4.10030395) // 408
    (-17.02960344 -8.45989247 3.08443799) // 409
    (-16.70971919 -8.07569052 3.09737097) // 410
    (-16.38983493 -7.69148858 3.60530395) // 411
    (-16.36953385 -7.66710565 2.10080741) // 412
    (-16.37968439 -7.67929711 2.60555568) // 413
    (-15.75071062 -6.92385842 3.14788587) // 414
    (-16.07027278 -7.30767350 3.12909491) // 415
    (-15.78399976 -8.15655625 4.16109422) // 416
    (-16.36130682 -8.97292922 3.14522826) // 417
    (-16.07265329 -8.56474273 3.15816124) // 418
    (-15.78399976 -8.15655625 3.66609422) // 419
    (-15.76568069 -8.13065116 2.16159768) // 420
    (-15.77484022 -8.14360370 2.66634595) // 421
    (-15.20727399 -7.34100530 3.20867614) // 422
    (-15.49563688 -7.74878077 3.18988518) // 423
    (-15.13917645 -8.57124629 4.22188450) // 424
    (-15.65044044 -9.43052355 3.20601853) // 425
    (-15.39480844 -9.00088492 3.21895152) // 426
    (-15.13917645 -8.57124629 3.72688450) // 427
    (-15.12295305 -8.54397976 2.22238796) // 428
    (-15.13106475 -8.55761303 2.72713623) // 429
    (-14.62842726 -7.71283425 3.26946641) // 430
    (-14.88380185 -8.14204027 3.25067546) // 431
    (-14.45536500 -8.93555871 4.28267477) // 432
    (-14.89741402 -9.83240927 3.26680881) // 433
    (-14.67638951 -9.38398399 3.27974179) // 434
    (-14.45536500 -8.93555871 3.78767477) // 435
    (-14.44133793 -8.90709991 2.28317823) // 436
    (-14.44835147 -8.92132931 2.78792650) // 437
    (-14.01376109 -8.03961119 3.33025669) // 438
    (-14.23456305 -8.48758495 3.31146573) // 439
    (-13.73256542 -9.24949350 4.34346505) // 440
    (-14.10265699 -10.17835329 3.32759908) // 441
    (-13.91761121 -9.71392339 3.34053206) // 442
    (-13.73256542 -9.24949350 3.84846505) // 443
    (-13.72082171 -9.22001899 2.34396850) // 444
    (-13.72669356 -9.23475624 2.84871677) // 445
    (-13.36284651 -8.32156899 3.39104696) // 446
    (-13.54770597 -8.78553125 3.37225600) // 447
    (-12.97077771 -9.51305067 4.40425532) // 448
    (-13.26661577 -10.46815701 3.38838936) // 449
    (-13.11869674 -9.99060384 3.40132234) // 450
    (-12.97077771 -9.51305067 3.90925532) // 451
    (-12.96139020 -9.48274330 2.40475878) // 452
    (-12.96608396 -9.49789699 2.90950705) // 453
    (-12.67523754 -8.55890604 3.45183723) // 454
    (-12.82300763 -9.03597835 3.43304628) // 455
    (-12.17395555 -9.72520703 4.46504559) // 456
    (-12.39370471 -10.70063441 3.44917963) // 457
    (-12.28383013 -10.21292072 3.46211261) // 458
    (-12.17395555 -9.72520703 3.97004559) // 459
    (-12.16698249 -9.69425484 2.46554905) // 460
    (-12.17046902 -9.70973093 2.97029732) // 461
    (-11.95442767 -8.75076182 3.51262751) // 462
    (-12.06419161 -9.23798442 3.49383655) // 463
    (-11.37811863 -9.87664096 4.52583587) // 464
    (-11.52041556 -10.86633781 3.50996990) // 465
    (-11.44926709 -10.37148939 3.52290288) // 466
    (-11.37811863 -9.87664096 4.03083587) // 467
    (-11.37360328 -9.84523597 2.52633932) // 468
    (-11.37586095 -9.86093847 3.03108760) // 469
    (-11.23596499 -8.88794065 3.57341778) // 470
    (-11.30704181 -9.38229081 3.55462682) // 471
    (-10.59192710 -9.96511128 4.58662614) // 472
    (-10.65588899 -10.96293749 3.57076018) // 473
    (-10.62390804 -10.46402438 3.58369316) // 474
    (-10.59192710 -9.96511128 4.09162614) // 475
    (-10.58989747 -9.93344833 2.58712960) // 476
    (-10.59091229 -9.94927980 3.09187787) // 477
    (-10.52802963 -8.96828979 3.63420806) // 478
    (-10.55997836 -9.46670053 3.61541710) // 479
    (-9.81538097 -9.99061798 4.64741641) // 480
    (-9.80061099 -10.99038301 3.63155045) // 481
    (-9.80799598 -10.49050049 3.64448343) // 482
    (-9.81538097 -9.99061798 4.15241641) // 483
    (-9.81584965 -9.95889350 2.64791987) // 484
    (-9.81561531 -9.97475574 3.15266814) // 485
    (-9.83013608 -8.99185962 3.69499833) // 486
    (-9.82275852 -9.49123880 3.67620737) // 487
    (-9.04848023 -9.95316106 4.70820669) // 488
    (-8.95507001 -10.94866235 3.69234072) // 489
    (-9.00177512 -10.45091170 3.70527371) // 490
    (-9.04848023 -9.95316106 4.21320669) // 491
    (-9.05144431 -9.92157189 2.70871014) // 492
    (-9.04996227 -9.93736648 3.21345842) // 493
    (-9.14179638 -8.95866217 3.75578860) // 494
    (-9.09513831 -9.45591161 3.73699764) // 495
    (-8.29122488 -9.85274053 4.76899696) // 496
    (-8.11975395 -10.83780195 3.75313100) // 497
    (-8.20548942 -10.34527124 3.76606398) // 498
    (-8.29122488 -9.85274053 4.27399696) // 499
    (-8.29666598 -9.82148264 2.76950042) // 500
    (-8.29394543 -9.83711159 3.27424869) // 501
    (-8.46252315 -8.86867099 3.81657888) // 502
    (-8.37687401 -9.36070576 3.79778792) // 503
    (-7.54361492 -9.68935639 4.82978723) // 504
    (-7.29514710 -10.65786659 3.81392127) // 505
    (-7.41938101 -10.17361149 3.82685425) // 506
    (-7.54361492 -9.68935639 4.33478723) // 507
    (-7.55149929 -9.65862369 2.83029069) // 508
    (-7.54755711 -9.67399004 3.33503896) // 509
    (-7.79183256 -8.72182140 3.87736915) // 510
    (-7.66772374 -9.20558889 3.85857819) // 511
    (-6.80565036 -9.46300863 4.89057751) // 512
    (-6.48172714 -10.40895896 3.87471154) // 513
    (-6.64368875 -9.93598379 3.88764453) // 514
    (-6.80565036 -9.46300863 4.39557751) // 515
    (-6.81592907 -9.43299180 2.89108097) // 516
    (-6.81078972 -9.44800022 3.39582924) // 517
    (-7.12924743 -8.51801080 3.93815942) // 518
    (-6.96744889 -8.99050972 3.91936847) // 519
    (-6.07733120 -9.17369726 4.95136778) // 520
    (-5.67996220 -10.09121900 3.93550182) // 521
    (-5.87864670 -9.63245813 3.94843480) // 522
    (-6.07733120 -9.17369726 4.45636778) // 523
    (-6.08994048 -9.14458253 2.95187124) // 524
    (-6.08363584 -9.15913989 3.45661951) // 525
    (-6.47430008 -8.25709938 3.99894970) // 526
    (-6.27581564 -8.71539832 3.98015874) // 527
    (-5.35865742 -8.82142227 5.01215805) // 528
    (-4.89030794 -9.70482311 3.99629209) // 529
    (-5.12448268 -9.26312269 4.00922507) // 530
    (-5.35865742 -8.82142227 4.51715805) // 531
    (-5.37351905 -8.79339026 3.01266151) // 532
    (-5.36608824 -8.80740627 3.51740978) // 533
    (-5.82653532 -7.93891095 4.05973997) // 534
    (-5.59259637 -8.38016661 4.04094901) // 535
    (-4.64990079 -8.40635304 5.07294833) // 536
    (-4.11347648 -9.25015232 4.05708236) // 537
    (-4.38168863 -8.82825268 4.07001535) // 538
    (-4.64990079 -8.40635304 4.57794833) // 539
    (-4.66692257 -8.37957766 3.07345179) // 540
    (-4.65841168 -8.39296535 3.57820006) // 541
    (-5.18578497 -7.56340339 4.12053024) // 542
    (-4.91784288 -7.98487822 4.10173929) // 543
    (-3.97664994 -7.94443819 5.13373860) // 544
    (-3.37547879 -8.74340097 4.11787264) // 545
    (-3.67606436 -8.34391958 4.13080562) // 546
    (-3.97664994 -7.94443819 4.63873860) // 547
    (-3.99572626 -7.91908556 3.13424206) // 548
    (-3.98618810 -7.93176188 3.63899033) // 549
    (-4.57721576 -7.14627990 4.18132052) // 550
    (-4.27693285 -7.54535905 4.16252956) // 551
    (-3.35568111 -7.44613385 5.19452888) // 552
    (-2.69349280 -8.19530334 4.17866291) // 553
    (-3.02458696 -7.82071859 4.19159589) // 554
    (-3.35568111 -7.44613385 4.69952888) // 555
    (-3.37669362 -7.42236126 3.19503233) // 556
    (-3.36618737 -7.43424756 3.69978060) // 557
    (-4.01720265 -6.69771872 4.24211079) // 558
    (-3.68644188 -7.07192629 4.22331983) // 559
    (-2.78699432 -6.91144003 5.25531915) // 560
    (-2.06789709 -7.60616835 4.23945319) // 561
    (-2.42744571 -7.25880419 4.25238617) // 562
    (-2.78699432 -6.91144003 4.76031915) // 563
    (-2.80981266 -6.88939496 3.25582261) // 564
    (-2.79840349 -6.90041749 3.76057088) // 565
    (-3.50536748 -6.21741124 4.30290106) // 566
    (-3.14618090 -6.56442563 4.28411011) // 567
    (-2.27058956 -6.34035671 5.31610942) // 568
    (-1.49904470 -6.97633376 4.30024346) // 569
    (-1.88481713 -6.65834524 4.31317644) // 570
    (-2.27058956 -6.34035671 4.82110942) // 571
    (-2.29507216 -6.32017593 3.31661288) // 572
    (-2.28283086 -6.33026632 3.82136115) // 573
    (-3.04135753 -5.70502004 4.36369134) // 574
    (-2.65597355 -6.02268837 4.34490038) // 575
    (-1.80646683 -5.73288391 5.37689970) // 576
    (-0.98726103 -6.30616406 4.36103373) // 577
    (-1.39686393 -6.01952399 4.37396671) // 578
    (-1.80646683 -5.73288391 4.88189970) // 579
    (-1.83246181 -5.71469262 3.37740315) // 580
    (-1.81946432 -5.72378827 3.88215142) // 581
    (-2.62484775 -5.16018100 4.42448161) // 582
    (-2.21565729 -5.44653245 4.40569065) // 583
    (-1.39462613 -5.08902162 5.43768997) // 584
    (-0.53284177 -5.59604823 4.42182401) // 585
    (-0.96373395 -5.34253493 4.43475699) // 586
    (-1.39462613 -5.08902162 4.94268997) // 587
    (-1.42197221 -5.07293268 3.43819343) // 588
    (-1.40829917 -5.08097715 3.94294170) // 589
    (-2.25554274 -4.58250553 4.48527189) // 590
    (-1.82508444 -4.83576357 4.46648093) // 591
    (-1.03506746 -4.40876984 5.49848024) // 592
    (-0.13605107 -4.84639731 4.48261428) // 593
    (-0.58555927 -4.62758357 4.49554726) // 594
    (-1.03506746 -4.40876984 5.00348024) // 595
    (-1.06359498 -4.39488307 3.49898370) // 596
    (-1.04933122 -4.40182646 4.00373197) // 597
    (-1.93317861 -3.97158302 4.54606216) // 598
    (-1.48412304 -4.19017643 4.52727120) // 599
    (-0.72779082 -3.69212857 5.55927052) // 600
    (0.20288008 -4.05764184 4.54340455) // 601
    (-0.26245537 -3.87488521 4.55633753) // 602