/*--------------------------------*- C++ -*----------------------------------*\
| =========                 |                                                 |
| \\      /  F ield         | OpenFOAM: The Open Source CFD Toolbox           |
|  \\    /   O peration     | Version:  v1806                                 |
|   \\  /    A nd           | Web:      www.OpenFOAM.com                      |
|    \\/     M anipulation  |                                                 |
\*---------------------------------------------------------------------------*/
FoamFile
{
    version     2.0;
    format      ascii;
    class       dictionary;
    object      blockMeshDict;
}
// * * * * * * * * * * * * * * * * * * * * * * * * * * * * * * * * * * * * * //

scale   1;

// the updated blockMesh (openfoam.com) fails on some meshes with default options;
// it reports report inconsistent number of faces although the mesh is still OK.
// this happens where two 'wedge' blocks with different numbers of cells join in the same
// point/edge.
mergeType points;
checkFaceCorrespondence false;



vertices
(
    
    (3.00000000 -5.00000000 0.50000000) // 0
    (3.49993706 -5.00000000 -0.00793298) // 1
    (3.24996853 -5.00000000 -0.00146649) // 2
    (3.00000000 -5.00000000 0.25250000) // 3
    (3.00000000 0.00000000 0.50000000) // 4
    (3.49993706 0.00000000 -0.00793298) // 5
    (3.24996853 0.00000000 -0.00146649) // 6
    (3.00000000 0.00000000 0.25250000) // 7
    (2.98413603 -5.00000000 -0.49974827) // 8
    (2.99206802 -5.00000000 -0.24737414) // 9
    (2.98413603 0.00000000 -0.49974827) // 10
    (2.99206802 0.00000000 -0.24737414) // 11
    (2.50056633 -5.00000000 0.02379096) // 12
    (2.75028317 -5.00000000 0.01439548) // 13
    (2.50056633 0.00000000 0.02379096) // 14
    (2.75028317 0.00000000 0.01439548) // 15
    (2.97573526 0.38078821 0.56076825) // 16
    (3.47162871 0.44424493 0.05283527) // 17
    (3.22368198 0.41251657 0.05930176) // 18
    (2.97573526 0.38078821 0.31326825) // 19
    (2.95999960 0.37877461 -0.43898002) // 20
    (2.96786743 0.37978141 -0.18660588) // 21
    (2.48034113 0.31739539 0.08455921) // 22
    (2.72803820 0.34909180 0.07516373) // 23
    (2.90333356 0.75541661 0.62153650) // 24
    (3.38716158 0.88130353 0.11360352) // 25
    (3.14524757 0.81836007 0.12007001) // 26
    (2.90333356 0.75541661 0.37403650) // 27
    (2.88798076 0.75142197 -0.37821177) // 28
    (2.89565716 0.75341929 -0.12583763) // 29
    (2.41999271 0.62965644 0.14532746) // 30
    (2.66166314 0.69253653 0.13593198) // 31
    (2.78396610 1.11782501 0.68230475) // 32
    (3.24790205 1.30410573 0.17437177) // 33
    (3.01593407 1.21096537 0.18083826) // 34
    (2.78396610 1.11782501 0.43480475) // 35
    (2.76924452 1.11191396 -0.31744352) // 36
    (2.77660531 1.11486949 -0.06506938) // 37
    (2.32049730 0.93173186 0.20609571) // 38
    (2.55223170 1.02477844 0.19670023) // 39
    (2.61956383 1.46215092 0.74307300) // 40
    (3.05610285 1.70581207 0.23514002) // 41
    (2.83783334 1.58398150 0.24160651) // 42
    (2.61956383 1.46215092 0.49557300) // 43
    (2.60571161 1.45441909 -0.25667527) // 44
    (2.61263772 1.45828500 -0.00430113) // 45
    (2.18346437 1.21873512 0.26686396) // 46
    (2.40151410 1.34044302 0.25746848) // 47
    (2.41278621 1.78282436 0.80384125) // 48
    (2.81486663 2.07992436 0.29590827) // 49
    (2.61382642 1.93137436 0.30237476) // 50
    (2.41278621 1.78282436 0.55634125) // 51
    (2.40002742 1.77339681 -0.19590702) // 52
    (2.40640682 1.77811058 0.05646712) // 53
    (2.01111065 1.48602352 0.32763221) // 54
    (2.21194843 1.63442394 0.31823673) // 55
    (2.16697817 2.07465796 0.86460951) // 56
    (2.52809573 2.42039076 0.35667652) // 57
    (2.34753695 2.24752436 0.36314302) // 58
    (2.16697817 2.07465796 0.61710951) // 59
    (2.15551921 2.06368719 -0.13513877) // 60
    (2.16124869 2.06917257 0.11723537) // 61
    (1.80622421 1.72927328 0.38840046) // 62
    (1.98660119 1.90196562 0.37900498) // 63
    (1.88611601 2.33293086 0.92537776) // 64
    (2.20042911 2.72170372 0.41744478) // 65
    (2.04327256 2.52731729 0.42391127) // 66
    (1.88611601 2.33293086 0.67787776) // 67
    (1.87614225 2.32059434 -0.07437051) // 68
    (1.88112913 2.32676260 0.17800362) // 69
    (1.57211940 1.94454945 0.44916871) // 70
    (1.72911771 2.13874015 0.43977324) // 71
    (1.57474312 2.55346512 0.98614601) // 72
    (1.83716727 2.97898907 0.47821303) // 73
    (1.70595519 2.76622709 0.48467952) // 74
    (1.57474312 2.55346512 0.73864601) // 75
    (1.56641589 2.53996242 -0.01360226) // 76
    (1.57057951 2.54671377 0.23877187) // 77
    (1.31258321 2.12836963 0.50993697) // 78
    (1.44366316 2.34091738 0.50054149) // 79
    (1.23789640 2.73269327 1.04691426) // 80
    (1.44418650 3.18808482 0.53898128) // 81
    (1.34104145 2.96038904 0.54544777) // 82
    (1.23789640 2.73269327 0.79941426) // 83
    (1.23135042 2.71824282 0.04716599) // 84
    (1.23462341 2.72546804 0.29954012) // 85
    (1.03181402 2.27776026 0.57070522) // 86
    (1.13485521 2.50522676 0.56130974) // 87
    (0.88102486 2.86771602 1.10768251) // 88
    (1.02784386 3.34560853 0.59974953) // 89
    (0.95443436 3.10666228 0.60621602) // 90
    (0.88102486 2.86771602 0.86018251) // 91
    (0.87636601 2.85255157 0.10793424) // 92
    (0.87869544 2.86013380 0.36030837) // 93
    (0.73435370 2.39030471 0.63147347) // 94
    (0.80768928 2.62901037 0.62207799) // 95
    (0.50990143 2.95634919 1.16845076) // 96
    (0.59487430 3.44901203 0.66051778) // 97
    (0.55238787 3.20268061 0.66698427) // 98
    (0.50990143 2.95634919 0.92095076) // 99
    (0.50720508 2.94071605 0.16870249) // 100
    (0.50855325 2.94853262 0.42107663) // 101
    (0.42501411 2.46418242 0.69224172) // 102
    (0.46745777 2.71026580 0.68284624) // 103
    (0.13052958 2.99715899 1.22921901) // 104
    (0.15228177 3.49662262 0.72128603) // 105
    (0.14140567 3.24689080 0.72775252) // 106
    (0.13052958 2.99715899 0.98171901) // 107
    (0.12983934 2.98131005 0.22947074) // 108
    (0.13018446 2.98923452 0.48184488) // 109
    (0.10879929 2.49819829 0.75300997) // 110
    (0.11966443 2.74767864 0.74361449) // 111
    (-0.25095378 2.98948527 1.28998726) // 112
    (-0.29277415 3.48767010 0.78205428) // 113
    (-0.27186396 3.23857769 0.78852077) // 114
    (-0.25095378 2.98948527 1.04248726) // 115
    (-0.24962674 2.97367691 0.29023899) // 116
    (-0.25029026 2.98158109 0.54261313) // 117
    (-0.20917553 2.49180207 0.81377822) // 118
    (-0.23006465 2.74064367 0.80438274) // 119
    (-0.62837759 2.93345217 1.35075551) // 120
    (-0.73309401 3.42229932 0.84282253) // 121
    (-0.68073580 3.17787574 0.84928902) // 122
    (-0.62837759 2.93345217 1.10325551) // 123
    (-0.62505474 2.91794010 0.35100724) // 124
    (-0.62671616 2.92569613 0.60338138) // 125
    (-0.52376661 2.44509724 0.87454647) // 126
    (-0.57607210 2.68927470 0.86515099) // 127
    (-0.99563645 2.82996609 1.41152376) // 128
    (-1.16155497 3.30156773 0.90359078) // 129
    (-1.07859571 3.06576691 0.91005727) // 130
    (-0.99563645 2.82996609 1.16402376) // 131
    (-0.99037154 2.81500126 0.41177549) // 132
    (-0.99300400 2.82248367 0.66414963) // 133
    (-0.82988500 2.35883930 0.93531472) // 134
    (-0.91276072 2.59440270 0.92591924) // 135
    (-1.34678941 2.68070108 1.47229202) // 136
    (-1.57122606 3.12742836 0.96435903) // 137
    (-1.45900773 2.90406472 0.97082553) // 138
    (-1.34678941 2.68070108 1.22479202) // 139
    (-1.33966760 2.66652556 0.47254374) // 140
    (-1.34322850 2.67361332 0.72491788) // 141
    (-1.12257875 2.23442362 0.99608297) // 142
    (-1.23468408 2.45756235 0.98668749) // 143
    (-1.67615603 2.48807173 1.53306027) // 144
    (-1.95548021 2.90269816 1.02512729) // 145
    (-1.81581812 2.69538495 1.03159378) // 146
    (-1.67615603 2.48807173 1.28556027) // 147
    (-1.66729254 2.47491484 0.53331200) // 148
    (-1.67172429 2.48149329 0.78568613) // 149
    (-1.39711311 2.07386280 1.05685122) // 150
    (-1.53663457 2.28096727 1.04745575) // 151
    (-1.97840833 2.25519411 1.59382852) // 152
    (-2.30810155 2.63101248 1.08589554) // 153
    (-2.14325494 2.44310330 1.09236203) // 154
    (-1.97840833 2.25519411 1.34632852) // 155
    (-1.96794653 2.24326867 0.59408025) // 156
    (-1.97317743 2.24923139 0.84645438) // 157
    (-1.64904709 1.87975415 1.11761948) // 158
    (-1.81372771 2.06747413 1.10822400) // 159
    (-2.24865692 1.98583535 1.65459677) // 160
    (-2.62338590 2.31676625 1.14666379) // 161
    (-2.43602141 2.15130080 1.15313028) // 162
    (-2.24865692 1.98583535 1.40709677) // 163
    (-2.23676605 1.97533428 0.65484850) // 164
    (-2.24271149 1.98058481 0.90722263) // 165
    (-1.87430526 1.65523767 1.17838773) // 166
    (-2.06148109 1.82053651 1.16899225) // 167
    (-2.48253013 1.68435274 1.71536502) // 168
    (-2.89623307 1.96504286 1.20743204) // 169
    (-2.68938160 1.82469780 1.21389853) // 170
    (-2.48253013 1.68435274 1.46786502) // 171
    (-2.46940254 1.67544590 0.71561675) // 172
    (-2.47596633 1.67989932 0.96799088) // 173
    (-2.06924375 1.40394525 1.23915598) // 174
    (-2.27588694 1.54414900 1.22976050) // 175
    (-2.67624470 1.35562321 1.77613327) // 176
    (-3.12222934 1.58153197 1.26820029) // 177
    (-2.89923702 1.46857759 1.27466678) // 178
    (-2.67624470 1.35562321 1.52863327) // 179
    (-2.66209275 1.34845469 0.77638500) // 180
    (-2.66916873 1.35203895 1.02875914) // 181
    (-2.23070913 1.12994192 1.29992423) // 182
    (-2.45347692 1.24278257 1.29052875) // 183
    (-2.82666702 1.00496445 1.83690152) // 184
    (-3.29771889 1.17243744 1.32896854) // 185
    (-3.06219296 1.08870095 1.33543503) // 186
    (-2.82666702 1.00496445 1.58940152) // 187
    (-2.81171964 0.99965021 0.83715325) // 188
    (-2.81919333 1.00230733 1.08952739) // 189
    (-2.35608946 0.83766009 1.36069248) // 190
    (-2.59137824 0.92131227 1.35129700) // 191
    (-2.93136378 0.63804889 1.89766977) // 192
    (-3.41986291 0.74437699 1.38973679) // 193
    (-3.17561335 0.69121294 1.39620328) // 194
    (-2.93136378 0.63804889 1.65016977) // 195
    (-2.91586276 0.63467489 0.89792150) // 196
    (-2.92361327 0.63636189 1.15029564) // 197
    (-2.44335652 0.53182786 1.42146073) // 198
    (-2.68736015 0.58493837 1.41206525) // 199
    (-2.98864135 0.26081193 1.95843802) // 200
    (-3.48668555 0.30427512 1.45050504) // 201
    (-3.23766345 0.28254353 1.45697153) // 202
    (-2.98864135 0.26081193 1.71093802) // 203
    (-2.97283745 0.25943276 0.95868975) // 204
    (-2.98073940 0.26012235 1.21106389) // 205
    (-2.49109865 0.21739251 1.48222898) // 206
    (-2.73987000 0.23910222 1.47283350) // 207
    (-2.99757319 -0.12064404 2.01920627) // 208
    (-3.49710583 -0.14074885 1.51127329) // 209
    (-3.24733951 -0.13069645 1.51773978) // 210
    (-2.99757319 -0.12064404 1.77170627) // 211
    (-2.98172205 -0.12000608 1.01945800) // 212
    (-2.98964762 -0.12032506 1.27183214) // 213
    (-2.49854353 -0.10055948 1.54299723) // 214
    (-2.74805836 -0.11060176 1.53360175) // 215
    (-2.95801480 -0.50014842 2.07997453) // 216
    (-3.45095521 -0.58349600 1.57204154) // 217
    (-3.20448501 -0.54182221 1.57850804) // 218
    (-2.95801480 -0.50014842 1.83247453) // 219
    (-2.94237285 -0.49750364 1.08022625) // 220
    (-2.95019382 -0.49882603 1.33260039) // 221
    (-2.46557074 -0.41688477 1.60376548) // 222
    (-2.71179277 -0.45851660 1.59437000) // 223
    (-2.87060610 -0.87156215 2.14074278) // 224
    (-3.34898023 -1.01680423 1.63280980) // 225
    (-3.10979317 -0.94418319 1.63927629) // 226
    (-2.87060610 -0.87156215 1.89324278) // 227
    (-2.85542637 -0.86695334 1.14099451) // 228
    (-2.86301624 -0.86925775 1.39336864) // 229
    (-2.39271366 -0.72646633 1.66453373) // 230
    (-2.63165988 -0.79901424 1.65513826) // 231
    (-2.73676107 -1.22887707 2.20151103) // 232
    (-3.19283050 -1.43366413 1.69357805) // 233
    (-2.96479579 -1.33127060 1.70004454) // 234
    (-2.73676107 -1.22887707 1.95401103) // 235
    (-2.72228911 -1.22237878 1.20176276) // 236
    (-2.72952509 -1.22562792 1.45413689) // 237
    (-2.28115086 -1.02429621 1.72530199) // 238
    (-2.50895597 -1.12658664 1.71590651) // 239
    (-2.55864484 -1.56631306 2.26227928) // 240
    (-2.98503197 -1.82733238 1.75434630) // 241
    (-2.77183840 -1.69682272 1.76081279) // 242
    (-2.55864484 -1.56631306 2.01477928) // 243
    (-2.54511475 -1.55803041 1.26253101) // 244
    (-2.55187979 -1.56217174 1.51490514) // 245
    (-2.13268704 -1.30555657 1.78607024) // 246
    (-2.34566594 -1.43593481 1.77667476) // 247
    (-2.33913870 -1.87841160 2.32304753) // 248
    (-2.72894608 -2.19144079 1.81511455) // 249
    (-2.53404239 -2.03492619 1.82158104) // 250
    (-2.33913870 -1.87841160 2.07554753) // 251
    (-2.32676936 -1.86847858 1.32329926) // 252
    (-2.33295403 -1.87344509 1.57567339) // 253
    (-1.94972383 -1.56569760 1.84683849) // 254
    (-2.14443127 -1.72205460 1.83744301) // 255
    (-2.08179351 -2.16012402 2.38381578) // 256
    (-2.42871542 -2.52009938 1.87588280) // 257
    (-2.25525446 -2.34011170 1.88234929) // 258
    (-2.08179351 -2.16012402 2.13631578) // 259
    (-2.07078501 -2.14870131 1.38406751) // 260
    (-2.07628926 -2.15441267 1.63644165) // 261
    (-1.73522092 -1.80051113 1.90760674) // 262
    (-1.90850721 -1.98031758 1.89821126) // 263
    (-1.79077219 -2.40689322 2.44458403) // 264
    (-2.08919666 -2.80799159 1.93665105) // 265
    (-1.93998443 -2.60744240 1.94311754) // 266
    (-1.79077219 -2.40689322 2.19708403) // 267
    (-1.78130261 -2.39416559 1.44483576) // 268
    (-1.78603740 -2.40052940 1.69720990) // 269
    (-1.49264822 -2.00619871 1.96837499) // 270
    (-1.64171021 -2.20654596 1.95897951) // 271
    (-1.47078246 -2.61472732 2.50535228) // 272
    (-1.71588202 -3.05046035 1.99741930) // 273
    (-1.59333224 -2.83259383 2.00388579) // 274
    (-1.47078246 -2.61472732 2.25785228) // 275
    (-1.46300498 -2.60090067 1.50560401) // 276
    (-1.46689372 -2.60781399 1.75797815) // 277
    (-1.22592970 -2.17943303 2.02914324) // 278
    (-1.34835608 -2.39708017 2.01974776) // 279
    (-1.12700063 -2.78026430 2.56612053) // 280
    (-1.31481043 -3.24358336 2.05818755) // 281
    (-1.22090553 -3.01192383 2.06465404) // 282
    (-1.12700063 -2.78026430 2.31862053) // 283
    (-1.12104107 -2.76556229 1.56637226) // 284
    (-1.12402085 -2.77291330 1.81874640) // 285
    (-0.93937995 -2.31741177 2.08991149) // 286
    (-1.03319029 -2.54883803 2.08051601) // 287
    (-0.76498788 -2.90082635 2.62688878) // 288
    (-0.89246981 -3.38423656 2.11895580) // 289
    (-0.82872885 -3.14253146 2.12542229) // 290
    (-0.76498788 -2.90082635 2.37938878) // 291
    (-0.76094263 -2.88548682 1.62714051) // 292
    (-0.76296526 -2.89315659 1.87951465) // 293
    (-0.63763431 -2.41790290 2.15067974) // 294
    (-0.70131110 -2.65936463 2.14128426) // 295
    (-0.39060031 -2.97446321 2.68765704) // 296
    (-0.45569217 -3.47014468 2.17972405) // 297
    (-0.42314624 -3.22230395 2.18619054) // 298
    (-0.39060031 -2.97446321 2.44015704) // 299
    (-0.38853482 -2.95873428 1.68790876) // 300
    (-0.38956757 -2.96659875 1.94028290) // 301
    (-0.32557400 -2.47928085 2.21144799) // 302
    (-0.35808715 -2.72687203 2.20205251) // 303
    (-0.00989420 -2.99998368 2.74842529) // 304
    (-0.01154302 -3.49991803 2.24049231) // 305
    (-0.01071861 -3.24995086 2.24695880) // 306
    (-0.00989420 -2.99998368 2.50092529) // 307
    (-0.00984188 -2.98411980 1.74867702) // 308
    (-0.00986804 -2.99205174 2.00105115) // 309
    (-0.00824703 -2.50055273 2.27221624) // 310
    (-0.00907061 -2.75026821 2.26282077) // 311
    (0.37097197 -2.97697494 2.80919354) // 312
    (0.43279285 -3.47307498 2.30126056) // 313
    (0.40188241 -3.22502496 2.30772705) // 314
    (0.37097197 -2.97697494 2.56169354) // 315
    (0.36901028 -2.96123273 1.80944527) // 316
    (0.36999112 -2.96910384 2.06181940) // 317
    (0.30921334 -2.48137443 2.33298450) // 318
    (0.34009266 -2.72917469 2.32358902) // 319
    (0.74583711 -2.90580918 2.86996179) // 320
    (0.87012765 -3.39004975 2.36202881) // 321
    (0.80798238 -3.14792947 2.36849530) // 322
    (0.74583711 -2.90580918 2.62246179) // 323
    (0.74189314 -2.89044329 1.87021352) // 324
    (0.74386513 -2.89812624 2.12258765) // 325
    (0.62167173 -2.42205620 2.39375275) // 326
    (0.68375442 -2.66393269 2.38435727) // 327
    (1.10863723 -2.78763762 2.93073004) // 328
    (1.29338684 -3.25218541 2.42279706) // 329
    (1.20101203 -3.01991151 2.42926355) // 330
    (1.10863723 -2.78763762 2.68323004) // 331
    (1.10277477 -2.77289662 1.93098177) // 332
    (1.10570600 -2.78026712 2.18335590) // 333
    (0.92407364 -2.32355759 2.45452100) // 334
    (1.01635543 -2.55559760 2.44512552) // 335
    (1.45350348 -2.62437186 2.99149829) // 336
    (1.69572357 -3.06171211 2.48356531) // 337
    (1.57461352 -2.84304198 2.49003180) // 338
    (1.45350348 -2.62437186 2.74399829) // 339
    (1.44581737 -2.61049421 1.99175002) // 340
    (1.44966042 -2.61743303 2.24412416) // 341
    (1.21152729 -2.18747197 2.51528925) // 342
    (1.33251538 -2.40592191 2.50589377) // 343
    (1.77485714 -2.41865296 3.05226654) // 344
    (2.07062943 -2.82171104 2.54433356) // 345
    (1.92274328 -2.62018200 2.55080005) // 346
    (1.77485714 -2.41865296 2.80476654) // 347
    (1.76547172 -2.40586315 2.05251827) // 348
    (1.77016443 -2.41225805 2.30489241) // 349
    (1.47938267 -2.01600072 2.57605750) // 350
    (1.62711990 -2.21732684 2.56666202) // 351
    (2.06749984 -2.17380874 3.11303479) // 352
    (2.41203977 -2.53606459 2.60510181) // 353
    (2.23976980 -2.35493666 2.61156830) // 354
    (2.06749984 -2.17380874 2.86553479) // 355
    (2.05656692 -2.16231366 2.11328652) // 356
    (2.06203338 -2.16806120 2.36566066) // 357
    (1.72330683 -1.81191765 2.63682575) // 358
    (1.89540333 -1.99286319 2.62743027) // 359
    (2.32669764 -1.89379991 3.17380304) // 360
    (2.71443176 -2.20939350 2.66587006) // 361
    (2.52056470 -2.05159671 2.67233655) // 362
    (2.32669764 -1.89379991 2.92630304) // 363
    (2.31439408 -1.88378552 2.17405477) // 364
    (2.32054586 -1.88879272 2.42642891) // 365
    (1.93935392 -1.57852410 2.69759400) // 366
    (2.13302578 -1.73616201 2.68819852) // 367
    (2.54825763 -1.58315605 3.23457129) // 368
    (2.97291377 -1.84698218 2.72663831) // 369
    (2.76058570 -1.71506911 2.73310480) // 370
    (2.54825763 -1.58315605 2.98707129) // 371
    (2.53478247 -1.57478434 2.23482302) // 372
    (2.54152005 -1.57897019 2.48719716) // 373
    (2.12402907 -1.31959557 2.75836225) // 374
    (2.33614335 -1.45137581 2.74896677) // 375
    (2.72859574 -1.24690227 3.29533955) // 376
    (3.18330446 -1.45469316 2.78740656) // 377
    (2.95595010 -1.35079771 2.79387305) // 378
    (2.72859574 -1.24690227 3.04783955) // 379
    (2.71416696 -1.24030866 2.29559127) // 380
    (2.72138135 -1.24360547 2.54796541) // 381
    (2.27434488 -1.03932061 2.81913050) // 382
    (2.50147031 -1.14311144 2.80973502) // 383
    (2.86479475 -0.89047798 3.35610780) // 384
    (3.34220044 -1.03887230 2.84817482) // 385
    (3.10349760 -0.96467514 2.85464131) // 386
    (2.86479475 -0.89047798 3.10860780) // 387
    (2.84964575 -0.88576915 2.35635953) // 388
    (2.85722025 -0.88812357 2.60873366) // 389
    (2.38786977 -0.74223309 2.87989875) // 390
    (2.62633226 -0.81635554 2.87050328) // 391
    (2.95465142 -0.51964889 3.41687605) // 392
    (3.44703134 -0.60624613 2.90894307) // 393
    (3.20084138 -0.56294751 2.91540956) // 394
    (2.95465142 -0.51964889 3.16937605) // 395
    (2.93902726 -0.51690099 2.41712778) // 396
    (2.94683934 -0.51827494 2.66950191) // 397
    (2.46276729 -0.43313884 2.94066701) // 398
    (2.70870936 -0.47639386 2.93127153) // 399
    (2.99671220 -0.14041370 3.47764430) // 400
    (3.49610136 -0.16381303 2.96971132) // 401
    (3.24640678 -0.15211336 2.97617781) // 402
    (2.99671220 -0.14041370 3.23014430) // 403
    (2.98086562 -0.13967119 2.47789603) // 404
    (2.98878891 -0.14004244 2.73027016) // 405
    (2.49782587 -0.11703792 3.00143526) // 406
    (2.74726904 -0.12872581 2.99203978) // 407
    (2.99029668 0.24109290 3.53841255) // 408
    (3.48861672 0.28126999 3.03047957) // 409
    (3.23945670 0.26118145 3.03694606) // 410
    (2.99029668 0.24109290 3.29091255) // 411
    (2.97448402 0.23981800 2.53866428) // 412
    (2.98239035 0.24045545 2.79103841) // 413
    (2.49247840 0.20095626 3.06220351) // 414
    (2.74138754 0.22102458 3.05280803) // 415
    (2.93550864 0.61869946 3.59918080) // 416
    (3.42469850 0.72180305 3.09124782) // 417
    (3.18010357 0.67025125 3.09771431) // 418
    (2.93550864 0.61869946 3.35168080) // 419
    (2.91998570 0.61542778 2.59943253) // 420
    (2.92774717 0.61706362 2.85180667) // 421
    (2.44681136 0.51569968 3.12297176) // 422
    (2.69116000 0.56719957 3.11357628) // 423
    (2.83323437 0.98629762 3.65994905) // 424
    (3.30538066 1.15065987 3.15201607) // 425
    (3.06930752 1.06847875 3.15848256) // 426
    (2.83323437 0.98629762 3.41244905) // 427
    (2.81825226 0.98108209 2.66020078) // 428
    (2.82574331 0.98368986 2.91257492) // 429
    (2.36156349 0.82210088 3.18374001) // 430
    (2.59739893 0.90419925 3.17434453) // 431
    (2.68512830 1.33794096 3.72071730) // 432
    (3.13259335 1.56090305 3.21278432) // 433
    (2.90886083 1.44942200 3.21925081) // 434
    (2.68512830 1.33794096 3.47321730) // 435
    (2.67092937 1.33086594 2.72096903) // 436
    (2.67802884 1.33440345 2.97334317) // 437
    (2.23811381 1.11520337 3.24450826) // 438
    (2.46162105 1.22657216 3.23511278) // 439
    (2.49358627 1.66794110 3.78148555) // 440
    (2.90913167 1.94589629 3.27355257) // 441
    (2.70135897 1.80691869 3.28001906) // 442
    (2.49358627 1.66794110 3.53398555) // 443
    (2.48040022 1.65912104 2.78173728) // 444
    (2.48699325 1.66353107 3.03411142) // 445
    (2.07845929 1.39026578 3.30527651) // 446
    (2.28602278 1.52910344 3.29588103) // 447
    (2.26170676 1.97095980 3.84225380) // 448
    (2.63861044 2.29941175 3.33432082) // 449
    (2.45015860 2.13518577 3.34078731) // 450
    (2.26170676 1.97095980 3.59475380) // 451
    (2.24974688 1.96053738 2.84250553) // 452
    (2.25572682 1.96574859 3.09487967) // 453
    (1.88518259 1.64283857 3.36604476) // 454
    (2.07344468 1.80689918 3.35664928) // 455
    (1.99324077 2.24209528 3.90302206) // 456
    (2.32540575 2.61573079 3.39508907) // 457
    (2.15932326 2.42891303 3.40155556) // 458
    (1.99324077 2.24209528 3.65552206) // 459
    (1.98270053 2.23023910 2.90327378) // 460
    (1.98797065 2.23616719 3.15564792) // 461
    (1.66141025 1.86883599 3.42681301) // 462
    (1.82732551 2.05546563 3.41741753) // 463
    (1.69253113 2.47696152 3.96379031) // 464
    (1.97458414 2.88973648 3.45585733) // 465
    (1.83355763 2.68334900 3.46232382) // 466
    (1.69253113 2.47696152 3.71629031) // 467
    (1.68358104 2.46386338 2.96404204) // 468
    (1.68805608 2.47041245 3.21641617) // 469
    (1.41076212 2.06460219 3.48758126) // 470
    (1.55164662 2.27078186 3.47818579) // 471
    (1.36444227 2.67175921 4.02455856) // 472
    (1.59182069 3.11699637 3.51662558) // 473
    (1.47813148 2.89437779 3.52309207) // 474
    (1.36444227 2.67175921 3.77705856) // 475
    (1.35722711 2.65763098 3.02481029) // 476
    (1.36083469 2.66469510 3.27718442) // 477
    (1.13729280 2.22697038 3.54834952) // 478
    (1.25086753 2.44936480 3.53895404) // 479
    (1.01428152 2.82333721 4.08532681) // 480
    (1.18330716 3.29383418 3.57739383) // 481
    (1.09879434 3.05858570 3.58386032) // 482
    (1.01428152 2.82333721 3.83782681) // 483
    (1.00891801 2.80840743 3.08557854) // 484
    (1.01159976 2.81587232 3.33795267) // 485
    (0.84542607 2.35331399 3.60911777) // 486
    (0.92985379 2.58832560 3.59972229) // 487
    (0.64771325 2.92924351 4.14609506) // 488
    (0.75565187 3.41738931 3.63816208) // 489
    (0.70168256 3.17331641 3.64462857) // 490
    (0.64771325 2.92924351 3.89859506) // 491
    (0.64428815 2.91375370 3.14634679) // 492
    (0.64600070 2.92149861 3.39872092) // 493
    (0.53988331 2.44158923 3.66988602) // 494
    (0.59379828 2.68541637 3.66049054) // 495
    (0.27066725 2.98776492 4.20686331) // 496
    (0.31577278 3.48566306 3.69893033) // 497
    (0.29322002 3.23671399 3.70539682) // 498
    (0.27066725 2.98776492 3.95936331) // 499
    (0.26923596 2.97196566 3.20711504) // 500
    (0.26995161 2.97986529 3.45948918) // 501
    (0.22560714 2.49036812 3.73065427) // 502
    (0.24813719 2.73906652 3.72125879) // 503
    (-0.11075719 2.99795478 4.26763156) // 504
    (-0.12921440 3.49755101 3.75969858) // 505
    (-0.11998580 3.24775289 3.76616507) // 506
    (-0.11075719 2.99795478 4.02013156) // 507
    (-0.11017151 2.98210163 3.26788329) // 508
    (-0.11046435 2.99002820 3.52025743) // 509
    (-0.09231857 2.49886159 3.79142252) // 510
    (-0.10153788 2.74840818 3.78202704) // 511
    (-0.49038998 2.95964823 4.32839981) // 512
    (-0.57211135 3.45286085 3.82046683) // 513
    (-0.53125066 3.20625454 3.82693332) // 514
    (-0.49038998 2.95964823 4.08089981) // 515
    (-0.48779680 2.94399765 3.32865154) // 516
    (-0.48909339 2.95182294 3.58102568) // 517
    (-0.40875089 2.46693224 3.85219077) // 518
    (-0.44957043 2.71329024 3.84279529) // 519
    (-0.86208997 2.87346496 4.38916806) // 520
    (-1.00575354 3.35231551 3.88123508) // 521
    (-0.93392176 3.11289023 3.88770157) // 522
    (-0.86208997 2.87346496 4.14166806) // 523
    (-0.85753125 2.85827011 3.38941979) // 524
    (-0.85981061 2.86586754 3.64179393) // 525
    (-0.71857105 2.39509658 3.91295902) // 526
    (-0.79033051 2.63428077 3.90356354) // 527
    (-1.21984437 2.74079910 4.44993631) // 528
    (-1.42312617 3.19754145 3.94200333) // 529
    (-1.32148527 2.96917028 3.94846982) // 530
    (-1.21984437 2.74079910 4.20243631) // 531
    (-1.21339384 2.72630579 3.45018804) // 532
    (-1.21661911 2.73355244 3.70256218) // 533
    (-1.01676725 2.28451665 3.97372727) // 534
    (-1.11830581 2.51265788 3.96433179) // 535
    (-1.55786596 2.56379672 4.51070457) // 536
    (-1.81747761 2.99104239 4.00277158) // 537
    (-1.68767178 2.77741956 4.00923807) // 538
    (-1.55786596 2.56379672 4.26320457) // 539
    (-1.54962798 2.55023940 3.51095629) // 540
    (-1.55374697 2.55701806 3.76333043) // 541
    (-1.29851572 2.13698126 4.03449552) // 542
    (-1.42819084 2.35038899 4.02510004) // 543
    (-1.87068675 2.34532111 4.57147282) // 544
    (-2.18242863 2.73615875 4.06353983) // 545
    (-2.02655769 2.54073993 4.07000633) // 546
    (-1.87068675 2.34532111 4.32397282) // 547
    (-1.86079458 2.33291907 3.57172455) // 548
    (-1.86574066 2.33912009 3.82409868) // 549
    (-1.55925877 1.95487700 4.09526377) // 550
    (-1.71497276 2.15009905 4.08586830) // 551
    (-2.15324638 2.08890642 4.63224107) // 552
    (-2.51207561 2.43701366 4.12430809) // 553
    (-2.33266100 2.26296004 4.13077458) // 554
    (-2.15324638 2.08890642 4.38474107) // 555
    (-2.14186004 2.07786030 3.63249280) // 556
    (-2.14755321 2.08338336 3.88486693) // 557
    (-1.79477847 1.74114968 4.15603203) // 558
    (-1.97401243 1.91502805 4.14663655) // 559
    (-2.40097404 1.79870054 4.69300932) // 560
    (-2.80108601 2.09844623 4.18507634) // 561
    (-2.60103003 1.94857339 4.19154283) // 562
    (-2.40097404 1.79870054 4.44550932) // 563
    (-2.38827772 1.78918904 3.69326105) // 564
    (-2.39462588 1.79394479 3.94563518) // 565
    (-2.00126495 1.49925667 4.21680028) // 566
    (-2.20111950 1.64897861 4.20740480) // 567
    (-2.60986236 1.47939801 4.75377757) // 568
    (-3.04478467 1.72593330 4.24584459) // 569
    (-2.82732351 1.60266566 4.25231108) // 570
    (-2.60986236 1.47939801 4.50627757) // 571
    (-2.59606144 1.47157497 3.75402930) // 572
    (-2.60296190 1.47548649 4.00640343) // 573
    (-2.17537798 1.23311095 4.27756853) // 574
    (-2.39262017 1.35625448 4.26817305) // 575
    (-2.77653226 1.13616400 4.81454582) // 576
    (-3.23922939 1.32550083 4.30661284) // 577
    (-3.00788082 1.23083241 4.31307933) // 578
    (-2.77653226 1.13616400 4.56704582) // 579
    (-2.76184999 1.13015597 3.81479755) // 580
    (-2.76919112 1.13315998 4.06717169) // 581
    (-2.31430103 0.94701781 4.33833678) // 582
    (-2.54541664 1.04159090 4.32894130) // 583
    (-2.89828760 0.77455084 4.87531407) // 584
    (-3.38127473 0.90362639 4.36738109) // 585
    (-3.13978116 0.83908861 4.37384758) // 586
    (-2.89828760 0.77455084 4.62781407) // 587
    (-2.88296149 0.77045502 3.87556580) // 588
    (-2.89062454 0.77250293 4.12793994) // 589
    (-2.41578679 0.64560525 4.39910503) // 590
    (-2.65703720 0.71007804 4.38970955) // 591
    (-2.97315881 0.40040816 4.93608232) // 592
    (-3.46862290 0.46713445 4.42814934) // 593
    (-3.22089086 0.43377131 4.43461583) // 594
    (-2.97315881 0.40040816 4.68858232) // 595
    (-2.95743678 0.39829081 3.93633405) // 596
    (-2.96529779 0.39934948 4.18870819) // 597
    (-2.47819360 0.33374905 4.45987328) // 598
    (-2.72567621 0.36707861 4.45047780) // 599
    (-2.99993474 0.01978828 4.99685057) // 600
    (-3.49986092 0.02308592 4.48891759) // 601
    (-3.24989783 0.02143710 4.49538408) // 602
    (-2.99993474 0.01978828 4.74935057) // 603
    (-2.98407111 0.01968364 3.99710230) // 604
    (-2.99200293 0.01973596 4.24947644) // 605
    (-2.50051193 0.01649397 4.52064153) // 606
    (-2.75022333 0.01814113 4.51124605) // 607
    (-2.97818224 -0.36115170 5.05761882) // 608
    (-3.47448347 -0.42133607 4.54968584) // 609
    (-3.22633285 -0.39124388 4.55615233) // 610
    (-2.97818224 -0.36115170 4.81011882) // 611
    (-2.96243364 -0.35924193 4.05787055) // 612
    (-2.97030794 -0.36019681 4.31024469) // 613
    (-2.48238074 -0.30102792 4.58140978) // 614
    (-2.73028149 -0.33108981 4.57201430) // 615
    (-2.90825320 -0.73624951 5.11838708) // 616
    (-3.39290105 -0.85894232 4.61045409) // 617