/*--------------------------------*- C++ -*----------------------------------*\
| =========                 |                                                 |
| \\      /  F ield         | OpenFOAM: The Open Source CFD Toolbox           |
|  \\    /   O peration     | Version:  v2012                                 |
|   \\  /    A nd           | Website:  www.openfoam.com                      |
|    \\/     M anipulation  |                                                 |
\*---------------------------------------------------------------------------*/
FoamFile
{
    version     2.0;
    format      ascii;
    class       extendedFeatureEdgeMesh;
    location    "constant/extendedFeatureEdgeMesh";
    object      reactor.extendedFeatureEdgeMesh;
}
// * * * * * * * * * * * * * * * * * * * * * * * * * * * * * * * * * * * * * //

// points

116
(
(0.025 0.1 0.0375)
(0.0236485 0.1 0.0375733)
(0.0289913 0.1 0.0381543)
(0.0276871 0.1 0.0377922)
(0.0263515 0.1 0.0375733)
(0.0325647 0.1 0.0400488)
(0.0314444 0.1 0.0392893)
(0.0302486 0.1 0.0386553)
(0.0353461 0.1 0.0429852)
(0.034527 0.1 0.0419077)
(0.0335962 0.1 0.0409251)
(0.0370444 0.1 0.0466559)
(0.0366122 0.1 0.0453733)
(0.0360439 0.1 0.0441449)
(0.0374817 0.1 0.0506767)
(0.0374817 0.1 0.0493233)
(0.0373353 0.1 0.0479777)
(0.0366122 0.1 0.0546267)
(0.0370444 0.1 0.0533441)
(0.0373353 0.1 0.0520223)
(0.034527 0.1 0.0580923)
(0.0353461 0.1 0.0570148)
(0.0360439 0.1 0.0558551)
(0.0314444 0.1 0.0607107)
(0.0325647 0.1 0.0599512)
(0.0335962 0.1 0.0590749)
(0.0276871 0.1 0.0622078)
(0.0289913 0.1 0.0618457)
(0.0302486 0.1 0.0613447)
(0.0236485 0.1 0.0624267)
(0.025 0.1 0.0625)
(0.0263515 0.1 0.0624267)
(0.0197514 0.1 0.0613447)
(0.0210087 0.1 0.0618457)
(0.0223129 0.1 0.0622078)
(0.0164038 0.1 0.0590749)
(0.0174353 0.1 0.0599512)
(0.0185556 0.1 0.0607107)
(0.0139561 0.1 0.0558551)
(0.0146539 0.1 0.0570148)
(0.015473 0.1 0.0580923)
(0.0126647 0.1 0.0520223)
(0.0129556 0.1 0.0533441)
(0.0133878 0.1 0.0546267)
(0.0126647 0.1 0.0479777)
(0.0125183 0.1 0.0493233)
(0.0125183 0.1 0.0506767)
(0.0139561 0.1 0.0441449)
(0.0133878 0.1 0.0453733)
(0.0129556 0.1 0.0466559)
(0.0164038 0.1 0.0409251)
(0.015473 0.1 0.0419077)
(0.0146539 0.1 0.0429852)
(0.0197514 0.1 0.0386553)
(0.0185556 0.1 0.0392893)
(0.0174353 0.1 0.0400488)
(0.0223129 0.1 0.0377922)
(0.0210087 0.1 0.0381543)
(0.025 -0.1 -0.0125)
(0.0263515 -0.1 -0.0124267)
(0.0210087 -0.1 -0.0118457)
(0.0223129 -0.1 -0.0122078)
(0.0236485 -0.1 -0.0124267)
(0.0174353 -0.1 -0.00995116)
(0.0185556 -0.1 -0.0107107)
(0.0197514 -0.1 -0.0113447)
(0.0146539 -0.1 -0.00701484)
(0.015473 -0.1 -0.00809233)
(0.0164038 -0.1 -0.00907494)
(0.0129556 -0.1 -0.0033441)
(0.0133878 -0.1 -0.00462673)
(0.0139561 -0.1 -0.00585511)
(0.0125183 -0.1 0.000676736)
(0.0125183 -0.1 -0.000676736)
(0.0126647 -0.1 -0.00202228)
(0.0133878 -0.1 0.00462673)
(0.0129556 -0.1 0.0033441)
(0.0126647 -0.1 0.00202228)
(0.015473 -0.1 0.00809233)
(0.0146539 -0.1 0.00701484)
(0.0139561 -0.1 0.00585511)
(0.0185556 -0.1 0.0107107)
(0.0174353 -0.1 0.00995116)
(0.0164038 -0.1 0.00907494)
(0.0223129 -0.1 0.0122078)
(0.0210087 -0.1 0.0118457)
(0.0197514 -0.1 0.0113447)
(0.0263515 -0.1 0.0124267)
(0.025 -0.1 0.0125)
(0.0236485 -0.1 0.0124267)
(0.0302486 -0.1 0.0113447)
(0.0289913 -0.1 0.0118457)
(0.0276871 -0.1 0.0122078)
(0.0335962 -0.1 0.00907494)
(0.0325647 -0.1 0.00995116)
(0.0314444 -0.1 0.0107107)
(0.0360439 -0.1 0.00585511)
(0.0353461 -0.1 0.00701484)
(0.034527 -0.1 0.00809233)
(0.0373353 -0.1 0.00202228)
(0.0370444 -0.1 0.0033441)
(0.0366122 -0.1 0.00462673)
(0.0373353 -0.1 -0.00202228)
(0.0374817 -0.1 -0.000676736)
(0.0374817 -0.1 0.000676736)
(0.0360439 -0.1 -0.00585511)
(0.0366122 -0.1 -0.00462673)
(0.0370444 -0.1 -0.0033441)
(0.0335962 -0.1 -0.00907494)
(0.034527 -0.1 -0.00809233)
(0.0353461 -0.1 -0.00701484)
(0.0302486 -0.1 -0.0113447)
(0.0314444 -0.1 -0.0107107)
(0.0325647 -0.1 -0.00995116)
(0.0276871 -0.1 -0.0122078)
(0.0289913 -0.1 -0.0118457)
)

// edges

116
(
(0 1)
(2 3)
(3 4)
(4 0)
(5 6)
(6 7)
(7 2)
(8 9)
(9 10)
(10 5)
(11 12)
(12 13)
(13 8)
(14 15)
(15 16)
(16 11)
(17 18)
(18 19)
(19 14)
(20 21)
(21 22)
(22 17)
(23 24)
(24 25)
(25 20)
(26 27)
(27 28)
(28 23)
(29 30)
(30 31)
(31 26)
(32 33)
(33 34)
(34 29)
(35 36)
(36 37)
(37 32)
(38 39)
(39 40)
(40 35)
(41 42)
(42 43)
(43 38)
(44 45)
(45 46)
(46 41)
(47 48)
(48 49)
(49 44)
(50 51)
(51 52)
(52 47)
(53 54)
(54 55)
(55 50)
(1 56)
(56 57)
(57 53)
(58 59)
(60 61)
(61 62)
(62 58)
(63 64)
(64 65)
(65 60)
(66 67)
(67 68)
(68 63)
(69 70)
(70 71)
(71 66)
(72 73)
(73 74)
(74 69)
(75 76)
(76 77)
(77 72)
(78 79)
(79 80)
(80 75)
(81 82)
(82 83)
(83 78)
(84 85)
(85 86)
(86 81)
(87 88)
(88 89)
(89 84)
(90 91)
(91 92)
(92 87)
(93 94)
(94 95)
(95 90)
(96 97)
(97 98)
(98 93)
(99 100)
(100 101)
(101 96)
(102 103)
(103 104)
(104 99)
(105 106)
(106 107)
(107 102)
(108 109)
(109 110)
(110 105)
(111 112)
(112 113)
(113 108)
(59 114)
(114 115)
(115 111)
)

// concaveStart mixedStart nonFeatureStart
0 0 0
// internalStart flatStart openStart multipleStart
116 116 116 116
// normals

232
(
(0 1 -0)
(-0.0541556 2.14268e-05 -0.998533)
(0 1 0)
(0.267523 0.000162247 -0.963551)
(0 1 0)
(0.161737 0.000181023 -0.986834)
(0 1 0)
(0.0541556 0.000180569 -0.998532)
(0 1 0)
(0.561146 0 -0.827717)
(0 1 0)
(0.468423 7.95628e-05 -0.883504)
(0 1 0)
(0.370167 0.000127821 -0.928965)
(0 1 0)
(0.796091 0 -0.605176)
(0 1 0)
(0.725984 0 -0.687712)
(0 1 0)
(0.647445 0 -0.762112)
(0 1 0)
(0.947645 0.000181849 -0.319327)
(0 1 0)
(0.90758 0.000183341 -0.419878)
(0 1 0)
(0.856845 0.000177973 -0.515573)
(0 1 0)
(1 0.000158027 0)
(0 1 0)
(0.994133 0.000168506 -0.108161)
(0 1 0)
(0.976628 0.000177507 -0.214935)
(0 1 0)
(0.947644 0.000121482 0.319328)
(0 1 0)
(0.976628 0.000132293 0.214935)
(0 1 0)
(0.994133 0.000144476 0.108161)
(0 1 0)
(0.796091 9.87775e-05 0.605176)
(0 1 0)
(0.856846 0.000103211 0.515572)
(0 1 0)
(0.90758 0.000111149 0.419878)
(0 1 0)
(0.561144 0 0.827718)
(0 1 0)
(0.647445 9.7039e-05 0.762112)
(0 1 0)
(0.725984 9.65696e-05 0.687712)
(0 1 0)
(0.267521 0 0.963552)
(0 1 0)
(0.370167 0 0.928965)
(0 1 0)
(0.468426 0 0.883503)
(-0 1 0)
(-0.0541556 0.000104336 0.998533)
(0 1 0)
(0.0541556 0.000182999 0.998532)
(0 1 0)
(0.16174 0.000178564 0.986833)
(-0 1 0)
(-0.370167 0 0.928965)
(-0 1 0)
(-0.267521 0 0.963552)
(0 1 0)
(-0.16174 0 0.986833)
(-0 1 0)
(-0.647445 0.000168516 0.762112)
(-0 1 0)
(-0.561144 0.00018269 0.827718)
(0 1 0)
(-0.468426 0.000172502 0.883503)
(-0 1 0)
(-0.856847 8.10379e-05 0.515571)
(-0 1 0)
(-0.796091 0.000117032 0.605177)
(0 1 0)
(-0.725984 0.000146702 0.687711)
(-0 1 0)
(-0.976628 0 0.214935)
(-0 1 0)
(-0.947644 0 0.319329)
(0 1 0)
(-0.907581 4.01451e-05 0.419878)
(0 1 -0)
(-0.994133 -0 -0.108161)
(0 1 0)
(-1 0 0)
(0 1 0)
(-0.994133 0 0.108161)
(0 1 -0)
(-0.907581 0.000175515 -0.419878)
(0 1 -0)
(-0.947644 0.000171577 -0.319329)
(0 1 0)
(-0.976628 -0 -0.214935)
(0 1 -0)
(-0.725984 0.000178798 -0.687711)
(0 1 -0)
(-0.796091 0.00017909 -0.605177)
(0 1 0)
(-0.856846 0.000177242 -0.515572)
(0 1 -0)
(-0.468424 0.000179095 -0.883504)
(0 1 -0)
(-0.561146 0.00018329 -0.827717)
(0 1 0)
(-0.647445 0.000177637 -0.762112)
(0 1 -0)
(-0.161737 8.23128e-05 -0.986834)
(0 1 -0)
(-0.267523 0.000128178 -0.963551)
(0 1 0)
(-0.370167 0.00016124 -0.928965)
(0 -1 0)
(0.0541563 -0.000180555 -0.998532)
(0 -1 0)
(-0.267521 0 -0.963552)
(0 -1 0)
(-0.161739 0 -0.986834)
(0 -1 -0)
(-0.0541563 0 -0.998532)
(0 -1 0)
(-0.561165 -0.000183461 -0.827704)
(0 -1 0)
(-0.468424 -0.000179103 -0.883504)
(0 -1 0)
(-0.370168 0 -0.928965)
(0 -1 0)
(-0.796088 -0.000178629 -0.605181)
(0 -1 0)
(-0.725987 -0.000178691 -0.687708)
(0 -1 0)
(-0.647411 -0.000177456 -0.762141)
(0 -1 0)
(-0.947646 -0.000171493 -0.319322)
(0 -1 0)
(-0.907578 -0.00017544 -0.419883)
(0 -1 0)
(-0.856853 -0.000177156 -0.515561)
(0 -1 0)
(-1 -0.000147 -0)
(0 -1 0)
(-0.994133 -0.000159126 -0.108165)
(0 -1 0)
(-0.976629 -0.000166232 -0.214932)
(0 -1 -0)
(-0.947646 -4.18696e-05 0.319322)
(0 -1 -0)
(-0.976629 -7.42065e-05 0.214932)
(0 -1 0)
(-0.994133 -9.82302e-05 0.108165)
(0 -1 -0)
(-0.796088 0 0.605181)
(0 -1 -0)
(-0.856853 0 0.515561)
(0 -1 0)
(-0.907578 0 0.419883)
(0 -1 -0)
(-0.561165 -0.000182038 0.827704)
(0 -1 -0)
(-0.647411 0 0.762141)
(0 -1 0)
(-0.725987 0 0.687708)
(0 -1 -0)
(-0.267521 -0.000105857 0.963552)
(0 -1 -0)
(-0.370168 -0.000147225 0.928965)
(0 -1 0)
(-0.468424 -0.000172506 0.883504)
(-0 -1 0)
(0.0541563 -0.000183014 0.998532)
(0 -1 -0)
(-0.0541563 0 0.998532)
(0 -1 0)
(-0.161739 0 0.986834)
(-0 -1 0)
(0.370168 -0.000127273 0.928965)
(-0 -1 0)
(0.267521 -0.000159978 0.963552)
(0 -1 0)
(0.161739 -0.00017856 0.986834)
(-0 -1 0)
(0.647411 -0 0.762141)
(-0 -1 0)
(0.561166 -0 0.827703)
(0 -1 0)
(0.468423 -8.142e-05 0.883504)
(-0 -1 0)
(0.856852 -0 0.515563)
(-0 -1 0)
(0.796089 -0 0.60518)
(0 -1 0)
(0.725987 -0 0.687708)
(-0 -1 0)
(0.976629 -0 0.214932)
(-0 -1 0)
(0.947647 -0 0.319321)
(0 -1 0)
(0.907578 -0 0.419884)
(0 -1 0)
(0.994133 0 -0.108165)
(0 -1 0)
(1 0 0)
(0 -1 0)
(0.994133 -0 0.108165)
(0 -1 0)
(0.907578 -0.00018318 -0.419884)
(0 -1 0)
(0.947647 -0.000181955 -0.319321)
(0 -1 0)
(0.976629 -0.000177456 -0.214932)
(0 -1 0)
(0.725987 -0.000143819 -0.687708)
(0 -1 0)
(0.796089 -0.000165446 -0.60518)
(0 -1 0)
(0.856852 -0.000177854 -0.515563)
(0 -1 0)
(0.468423 0 -0.883504)
(0 -1 0)
(0.561166 0 -0.827703)
(0 -1 0)
(0.647411 -0.000111609 -0.762141)
(0 -1 0)
(0.161739 -0.000181045 -0.986834)
(0 -1 0)
(0.267521 0 -0.963552)
(0 -1 0)
(0.370168 0 -0.928965)
)

// normal volume types

232
(
0
0
0
0
0
0
0
0
0
0
0
0
0
0
0
0
0
0
0
0
0
0
0
0
0
0
0
0
0
0
0
0
0
0
0
0
0
0
0
0
0
0
0
0
0
0
0
0
0
0
0
0
0
0
0
0
0
0
0
0
0
0
0
0
0
0
0
0
0
0
0
0
0
0
0
0
0
0
0
0
0
0
0
0
0
0
0
0
0
0
0
0
0
0
0
0
0
0
0
0
0
0
0
0
0
0
0
0
0
0
0
0
0
0
0
0
0
0
0
0
0
0
0
0
0
0
0
0
0
0
0
0
0
0
0
0
0
0
0
0
0
0
0
0
0
0
0
0
0
0
0
0
0
0
0
0
0
0
0
0
0
0
0
0
0
0
0
0
0
0
0
0
0
0
0
0
0
0
0
0
0
0
0
0
0
0
0
0
0
0
0
0
0
0
0
0
0
0
0
0
0
0
0
0
0
0
0
0
0
0
0
0
0
0
0
0
0
0
0
0
0
0
0
0
0
0
0
0
0
0
0
0
)

// normalDirections

116
(
2(1 -1)
2(1 -1)
2(1 -1)
2(1 -1)
2(1 -1)
2(1 -1)
2(1 -1)
2(1 -1)
2(1 -1)
2(1 -1)
2(1 -1)
2(1 -1)
2(1 -1)
2(1 -1)
2(1 -1)
2(1 -1)
2(1 -1)
2(1 -1)
2(1 -1)
2(1 -1)
2(1 -1)
2(1 -1)
2(1 -1)
2(1 -1)
2(1 -1)
2(1 -1)
2(1 -1)
2(1 -1)
2(1 -1)
2(1 -1)
2(1 -1)
2(1 -1)
2(1 -1)
2(1 -1)
2(1 -1)
2(1 -1)
2(1 -1)
2(1 -1)
2(1 -1)
2(1 -1)
2(1 -1)
2(1 -1)
2(1 -1)
2(1 -1)
2(1 -1)
2(1 -1)
2(1 -1)
2(1 -1)
2(1 -1)
2(1 -1)
2(1 -1)
2(1 -1)
2(1 -1)
2(1 -1)
2(1 -1)
2(1 -1)
2(1 -1)
2(1 -1)
2(1 -1)
2(1 -1)
2(1 -1)
2(1 -1)
2(1 -1)
2(1 -1)
2(1 -1)
2(1 -1)
2(1 -1)
2(1 -1)
2(1 -1)
2(1 -1)
2(1 -1)
2(1 -1)
2(1 -1)
2(1 -1)
2(1 -1)
2(1 -1)
2(1 -1)
2(1 -1)
2(1 -1)
2(1 -1)
2(1 -1)
2(1 -1)
2(1 -1)
2(1 -1)
2(1 -1)
2(1 -1)
2(1 -1)
2(1 -1)
2(1 -1)
2(1 -1)
2(1 -1)
2(1 -1)
2(1 -1)
2(1 -1)
2(1 -1)
2(1 -1)
2(1 -1)
2(1 -1)
2(1 -1)
2(1 -1)
2(1 -1)
2(1 -1)
2(1 -1)
2(1 -1)
2(1 -1)
2(1 -1)
2(1 -1)
2(1 -1)
2(1 -1)
2(1 -1)
2(1 -1)
2(1 -1)
2(1 -1)
2(1 -1)
2(1 -1)
2(1 -1)
)

// edgeNormals

116
(
2(0 1)
2(2 3)
2(4 5)
2(6 7)
2(8 9)
2(10 11)
2(12 13)
2(14 15)
2(16 17)
2(18 19)
2(20 21)
2(22 23)
2(24 25)
2(26 27)
2(28 29)
2(30 31)
2(32 33)
2(34 35)
2(36 37)
2(38 39)
2(40 41)
2(42 43)
2(44 45)
2(46 47)
2(48 49)
2(50 51)
2(52 53)
2(54 55)
2(56 57)
2(58 59)
2(60 61)
2(62 63)
2(64 65)
2(66 67)
2(68 69)
2(70 71)
2(72 73)
2(74 75)
2(76 77)
2(78 79)
2(80 81)
2(82 83)
2(84 85)
2(86 87)
2(88 89)
2(90 91)
2(92 93)
2(94 95)
2(96 97)
2(98 99)
2(100 101)
2(102 103)
2(104 105)
2(106 107)
2(108 109)
2(110 111)
2(112 113)
2(114 115)
2(116 117)
2(118 119)
2(120 121)
2(122 123)
2(124 125)
2(126 127)
2(128 129)
2(130 131)
2(132 133)
2(134 135)
2(136 137)
2(138 139)
2(140 141)
2(142 143)
2(144 145)
2(146 147)
2(148 149)
2(150 151)
2(152 153)
2(154 155)
2(156 157)
2(158 159)
2(160 161)
2(162 163)
2(164 165)
2(166 167)
2(168 169)
2(170 171)
2(172 173)
2(174 175)
2(176 177)
2(178 179)
2(180 181)
2(182 183)
2(184 185)
2(186 187)
2(188 189)
2(190 191)
2(192 193)
2(194 195)
2(196 197)
2(198 199)
2(200 201)
2(202 203)
2(204 205)
2(206 207)
2(208 209)
2(210 211)
2(212 213)
2(214 215)
2(216 217)
2(218 219)
2(220 221)
2(222 223)
2(224 225)
2(226 227)
2(228 229)
2(230 231)
)

// featurePointNormals
0()
// featurePointEdges
0()
// regionEdges
0()


// ************************************************************************* //
