/*--------------------------------*- C++ -*----------------------------------*\
| =========                 |                                                 |
| \\      /  F ield         | OpenFOAM: The Open Source CFD Toolbox           |
|  \\    /   O peration     | Version:  v1806                                 |
|   \\  /    A nd           | Web:      www.OpenFOAM.com                      |
|    \\/     M anipulation  |                                                 |
\*---------------------------------------------------------------------------*/
FoamFile
{
    version     2.0;
    format      ascii;
    class       dictionary;
    object      blockMeshDict;
}
// * * * * * * * * * * * * * * * * * * * * * * * * * * * * * * * * * * * * * //

scale   1;

// the updated blockMesh (openfoam.com) fails on some meshes with default options;
// it reports report inconsistent number of faces although the mesh is still OK.
// this happens where two 'wedge' blocks with different numbers of cells join in the same
// point/edge.
mergeType points;
checkFaceCorrespondence false;



vertices
(
    
    (1.33152664 0.50385499 -0.66622952) // 0
    (0.90072217 -1.29660998 0.40341071) // 1
    (0.62732084 -0.59818245 0.38979313) // 2
    (0.84272308 0.30205004 -0.14502699) // 3
    (1.27416439 0.30171691 -0.78520062) // 4
    (0.56315260 -1.41169492 0.27785111) // 5
    (0.40141991 -0.67930560 0.26431740) // 6
    (0.75692580 0.17740031 -0.26720846) // 7
    (-0.66110171 -0.26732302 1.43910920) // 8
    (-0.15359110 -0.08353897 0.90764238) // 9
    (-0.82628425 -0.15417180 1.30717015) // 10
    (-0.29329852 -0.05054404 0.77897693) // 11
    (-0.18073756 1.50048069 0.33660426) // 12
    (0.08659098 0.80036289 0.35638990) // 13
    (-0.07118295 1.51933639 0.21145615) // 14
    (0.08425213 0.78621006 0.23111992) // 15
    (1.35804189 0.70891964 -0.55011975) // 16
    (1.21552134 -1.13132165 0.52904508) // 17
    (0.83850232 -0.48293701 0.51530624) // 18
    (0.90976259 0.43718364 -0.02427618) // 19
    (-0.47740205 -0.34802881 1.57396592) // 20
    (-0.00795938 -0.09129059 1.03776666) // 21
    (-0.28116177 1.46735709 0.46164374) // 22
    (0.09016076 0.81640236 0.48160557) // 23
    (1.35606240 0.91195075 -0.43649529) // 24
    (1.50040234 -0.92101373 0.65474438) // 25
    (1.03033295 -0.33656826 0.64085181) // 26
    (0.95816298 0.57991399 0.09523198) // 27
    (-0.28169949 -0.39273364 1.71135691) // 28
    (0.13928204 -0.07242821 1.16915808) // 29
    (-0.36948991 1.42346750 0.58658888) // 30
    (0.09538683 0.83567236 0.60677407) // 31
    (1.32862308 1.10925369 -0.32491683) // 32
    (1.74969452 -0.67180096 0.78049713) // 33
    (1.19896554 -0.16265041 0.76642411) // 34
    (0.98842982 0.72787691 0.21371713) // 35
    (-0.08106462 -0.39959440 1.85083418) // 36
    (0.28358597 -0.02654713 1.30159264) // 37
    (-0.44404254 1.37282261 0.71145636) // 38
    (0.10209701 0.85966137 0.73190373) // 39
    (1.27896413 1.29838289 -0.21491932) // 40
    (1.95923197 -0.39026139 0.90629119) // 41
    (1.34136149 0.03490571 0.89201707) // 42
    (1.00122757 0.87922785 0.33141181) // 43
    (0.11740572 -0.36845878 1.99192353) // 44
    (0.42044836 0.04580702 1.43483324) // 45
    (-0.50441742 1.31949366 0.83626381) // 46
    (0.10953679 0.88978324 0.85700338) // 47
    (1.21014984 1.47796933 -0.10604511) // 48
    (2.12623534 -0.08304850 1.03211460) // 49
    (1.45524194 0.25205244 1.01762470) // 50
    (0.99719919 1.03256136 0.44854485) // 51
    (0.30702285 -0.30067756 2.13415831) // 52
    (0.54563570 0.14323792 1.56864655) // 53
    (-0.55133554 1.26724606 0.96102863) // 54
    (0.11645650 0.92719973 0.98208171) // 55
    (1.12481739 1.64746185 0.00213051) // 56
    (2.24910989 0.24338562 1.15795626) // 57
    (1.53899635 0.48475046 1.14324145) // 58
    (0.97685010 1.18678857 0.56532858) // 59
    (0.48180837 -0.19882169 2.27710544) // 60
    (0.65534559 0.26364680 1.70281604) // 61
    (-0.58640424 1.21928662 1.08576692) // 62
    (0.12123929 0.97270096 1.10714678) // 63
    (1.02505336 1.80684654 0.10998248) // 64
    (2.32721620 0.58295675 1.28380638) // 65
    (1.59157677 0.72905962 1.26886244) // 66
    (0.94049535 1.34100452 0.68195049) // 67
    (0.63666411 -0.06636982 2.42038259) // 68
    (0.74630073 0.40439634 1.83715054) // 69
    (-0.61185425 1.17812435 1.21049293) // 70
    (0.12204155 1.02664343 1.23220571) // 71
    (0.88807169 1.96933041 0.23113671) // 72
    (2.35886760 0.95934704 1.40930895) // 73
    (1.60964637 0.99365891 1.39430965) // 74
    (0.87424841 1.49865059 0.80522353) // 75
    (0.78466272 0.06946961 2.55009552) // 76
    (0.82254393 0.54872019 1.96470293) // 77
    (-0.63618063 1.10769050 1.33572392) // 78
    (0.11212225 1.06783064 1.35751713) // 79
    (0.74954833 2.10542589 0.34371147) // 80
    (2.33873941 1.31383560 1.53503567) // 81
    (1.59153499 1.24910337 1.51986893) // 82
    (0.79693945 1.64489851 0.92420683) // 83
    (0.89363750 0.24030583 2.68855686) // 84
    (0.86898403 0.71233848 2.09662953) // 85
    (-0.64969771 1.06596129 1.46062921) // 86
    (0.09731643 1.12516621 1.48266570) // 87
    (0.61083012 2.22560953 0.45161375) // 88
    (2.27717395 1.64910335 1.66088448) // 89
    (1.54285895 1.49652812 1.64548926) // 90
    (0.70968703 1.78478121 1.04085390) // 91
    (0.96371289 0.43451940 2.83178272) // 92
    (0.88612841 0.88923614 2.23093838) // 93
    (-0.66095229 1.04956667 1.58535713) // 94
    (0.07379582 1.19675978 1.60772559) // 95
    (0.46224021 2.33653334 0.56016929) // 96
    (2.17619241 1.97688443 1.78671621) // 97
    (1.46435157 1.74072023 1.77110105) // 98
    (0.60737547 1.92054469 1.15782759) // 99
    (1.00356218 0.64051655 2.97434244) // 100
    (0.87803645 1.07253629 2.36491417) // 101
    (-0.67318020 1.04257098 1.71010984) // 102
    (0.03966526 1.27356351 1.73279787) // 103
    (0.30382383 2.43807748 0.66946370) // 104
    (2.03739491 2.29344805 1.91252864) // 105
    (1.35664572 1.97870240 1.89670319) // 106
    (0.48986018 2.05101711 1.27517072) // 107
    (1.01240212 0.85397410 3.11614874) // 108
    (0.84414932 1.25896542 2.49851324) // 109
    (-0.68864397 1.04428081 1.83489061) // 110
    (-0.00637372 1.35411877 1.85788418) // 111
    (0.13554859 2.52988433 0.77954930) // 112
    (1.86257170 2.59533133 2.03832040) // 113
    (1.22058250 2.20761005 2.02229500) // 114
    (0.35707094 2.17488655 1.39290944) // 115
    (0.98998729 1.07071600 3.25714828) // 116
    (0.78429029 1.44530238 2.63170893) // 117
    (-0.70934703 1.05364798 1.95970141) // 118
    (-0.06537687 1.43676838 1.98298550) // 119
    (-0.04261811 2.61136933 0.89045183) // 120
    (1.65368597 2.87931151 2.16409082) // 121
    (1.05720485 2.42468848 2.14787613) // 122
    (0.20905281 2.29071739 1.51105664) // 123
    (0.93654045 1.28674824 3.39731479) // 124
    (0.69863209 1.62840684 2.76448812) // 125
    (-0.73700723 1.06934116 2.08454322) // 126
    (-0.13814175 1.51970330 2.10810233) // 127
    (-0.23064616 2.68174533 1.00217638) // 128
    (1.41286509 3.14238687 2.28983976) // 129
    (0.86775427 2.62729446 2.27344652) // 130
    (0.04599864 2.39697369 1.62961484) // 131
    (0.85269312 1.49828053 3.53664309) // 132
    (0.58766828 1.80524129 2.89684819) // 133
    (-0.77304279 1.08980965 2.20941624) // 134
    (-0.22519968 1.60100585 2.23323477) // 135
    (-0.42839365 2.74005531 1.11471248) // 136
    (1.14239630 3.38176552 2.41556749) // 137
    (0.65366868 2.81290194 2.39900632) // 138
    (-0.13172630 2.49204683 1.74857881) // 139
    (0.73943597 1.70173958 3.67514387) // 140
    (0.45218851 1.97288897 3.02879450) // 141
    (-0.81856728 1.11333983 2.33432007) // 142
    (-0.32681311 1.67868909 2.35838260) // 143
    (-0.63557033 2.78520969 1.22803832) // 144
    (0.84472423 3.59486107 2.54127459) // 145
    (0.41658025 2.97911115 2.52455579) // 146
    (-0.32356702 2.57428546 1.86793766) // 147
    (0.59807742 1.89377752 3.81283935) // 148
    (0.29325685 2.12856938 3.16033817) // 149
    (-0.87439055 1.13810479 2.45925387) // 150
    (-0.44297714 1.75073301 2.48354543) // 151
    (-0.86000196 2.80637397 1.34476945) // 152
    (0.50575055 3.78520336 2.66689272) // 153
    (0.15010498 3.12492489 2.65006078) // 154
    (-0.53277127 2.63551020 1.98899914) // 155
    (0.43978135 2.07400194 3.94706248) // 156
    (0.11712038 2.26932418 3.29014566) // 157
    (-0.92387783 1.14947227 2.58431695) // 158
    (-0.56470921 1.80705935 2.60877289) // 159
    (-1.09232069 2.80382593 1.46289489) // 160
    (0.13878784 3.93872104 2.79247442) // 161
    (-0.13796382 3.24168679 2.77554756) // 162
    (-0.75351809 2.67423924 2.11075779) // 163
    (0.25923218 2.23592378 4.07986383) // 164
    (-0.07774165 2.39028816 3.41924226) // 165
    (-0.97569828 1.15506171 2.70943295) // 166
    (-0.69520688 1.84985713 2.73402682) // 167
    (-1.31979837 2.79487341 1.57850934) // 168
    (-0.22018222 4.04694363 2.91812173) // 169
    (-0.42891796 3.32661504 2.90106713) // 170
    (-0.97872603 2.70057993 2.23126094) // 171
    (0.04524316 2.36811437 4.21522563) // 172
    (-0.29620527 2.48720041 3.54961909) // 173
    (-1.06279544 1.16931664 2.83445364) // 174
    (-0.85022457 1.88780155 2.85923309) // 175
    (-1.55271897 2.76824054 1.69474511) // 176
    (-0.59355999 4.12160271 3.04375280) // 177
    (-0.73313531 3.38474552 3.02657860) // 178
    (-1.21271480 2.70806443 2.35207475) // 179
    (-0.18760479 2.47830238 4.34995388) // 180
    (-0.53015771 2.56309535 3.67967913) // 181
    (-1.15964550 1.17708530 2.95949791) // 182
    (-1.01617807 1.91248681 2.98445115) // 183
    (-1.78982885 2.72286647 1.81156358) // 184
    (-0.97830760 4.16133631 3.16936865) // 185
    (-1.04818721 3.41464175 3.15208244) // 186
    (-1.45394784 2.69540683 2.47317991) // 187
    (-0.43695337 2.56451272 4.48408795) // 188
    (-0.77751010 2.61622995 3.80944209) // 189
    (-1.26565283 1.17671316 3.08456430) // 190
    (-1.19185983 1.92233017 3.10968027) // 191
    (-2.02970451 2.65777994 1.92892715) // 192
    (-1.37127658 4.16502768 3.29497026) // 193
    (-1.37150899 3.41507285 3.27757917) // 194
    (-1.70072295 2.66144899 2.59455762) // 195
    (-0.70028995 2.62501168 4.61766618) // 196
    (-1.03601567 2.64506486 3.93892714) // 197
    (-1.38000958 1.16663163 3.20965138) // 198
    (-1.37587549 1.91587483 3.23491974) // 199
    (-2.27076389 2.57212381 2.04679963) // 200
    (-1.76922380 4.13181634 3.42055857) // 201
    (-1.70041551 3.38502702 3.40306925) // 202
    (-1.95118555 2.60518076 2.71618979) // 203
    (-0.97496658 2.65831429 4.75072548) // 204
    (-1.30328690 2.64827599 4.06815271) // 205
    (-1.50170999 1.14537882 3.33475779) // 206
    (-1.56665860 1.89180826 3.36016886) // 207
    (-2.51128018 2.46517711 2.16514654) // 208
    (-2.16882924 4.06110834 3.54613448) // 209
    (-2.03211840 3.32372392 3.52855313) // 210
    (-2.20334387 2.52575831 2.83805917) // 211
    (-1.25821946 2.66319120 4.88330101) // 212
    (-1.57681351 2.62476535 4.19713640) // 213
    (-1.62956581 1.11161857 3.45988220) // 214
    (-1.76248668 1.84897904 3.48542699) // 215
    (-2.74939792 2.33637474 2.28393523) // 216
    (-2.56671543 3.95258514 3.67169885) // 217
    (-2.36374473 3.23062566 3.65403124) // 218
    (-2.45508598 2.42252046 2.96014943) // 219
    (-1.54718880 2.63867514 5.01542606) // 220
    (-1.85398142 2.57367066 4.32589485) // 221
    (-1.76222284 1.06415763 3.58502338) // 222
    (-1.96149844 1.78641191 3.61069351) // 223
    (-2.98315087 2.18532468 2.40313495) // 224
    (-2.95946839 3.80621095 3.79725249) // 225
    (-2.69235716 3.10544613 3.77950399) // 226
    (-2.70419840 2.29500300 3.08244522) // 227
    (-1.83893946 2.58406648 5.14713198) // 228
    (-2.13209270 2.49437390 4.45444373) // 229
    (-1.89817848 1.00196121 3.71018017) // 230
    (-2.16171220 1.70332127 3.73596783) // 231
    (-3.20944221 2.00911380 2.52301769) // 232
    (-3.34727334 3.61940624 3.92278827) // 233
    (-3.01638243 2.94640671 3.90496780) // 234
    (-2.94746686 2.14126049 3.20508251) // 235
    (-2.12978840 2.50041337 5.27814143) // 236
    (-2.40763995 2.38691027 4.58264438) // 237
    (-2.03059041 0.92562873 3.83536289) // 238
    (-2.35804096 1.59951795 3.86125511) // 239
    (-3.41842321 1.79562919 2.64480662) // 240
    (-3.74026582 3.37616479 4.04827426) // 241
    (-3.33707915 2.74382310 4.03040672) // 242
    (-3.17615785 1.95355530 3.32867290) // 243
    (-2.41383019 2.39368489 5.40720716) // 244
    (-2.67386134 2.25258315 4.70987317) // 245
    (-2.13407794 0.84432527 3.96061796) // 246
    (-2.53398522 1.47790335 3.98657857) // 247
    (-3.61897249 1.57459645 2.76528838) // 248
    (-4.08645476 3.11374166 4.17379439) // 249
    (-3.62971524 2.51892891 4.15586271) // 250
    (-3.39597411 1.74935630 3.45160971) // 251
    (-2.68883952 2.24305978 5.53760580) // 252
    (-2.93090763 2.08358796 4.83776842) // 253
    (-2.26570628 0.73154298 4.08582342) // 254
    (-2.71934101 1.32782957 4.11187723) // 255
    (-3.80603663 1.33276177 2.88604884) // 256
    (-4.41345865 2.81773181 4.29930725) // 257
    (-3.90685525 2.26477247 4.28131507) // 258
    (-3.60314424 1.52228746 3.57468586) // 259
    (-2.95398835 2.06355068 5.66772024) // 260
    (-3.17712011 1.88768191 4.96552156) // 261
    (-2.39287814 0.60251226 4.21103945) // 262
    (-2.89656500 1.15716270 4.23718117) // 263
    (-3.97752756 1.07085127 3.00706926) // 264
    (-4.71818481 2.48959207 4.42481331) // 265
    (-4.16572036 1.98245108 4.40676402) // 266
    (-3.79539173 1.27308068 3.69789200) // 267
    (-3.20644693 1.85588430 5.79756961) // 268
    (-3.40985141 1.66559719 5.09314217) // 269
    (-2.51376003 0.45725227 4.33626536) // 270
    (-3.06350797 0.96628118 4.36249004) // 271
    (-4.13138720 0.78980100 3.12833221) // 272
    (-4.99765074 2.13105222 4.55031304) // 273
    (-4.40360991 1.67331594 4.53220981) // 274
    (-3.97047814 1.00269033 3.82121940) // 275
    (-3.44344629 1.62104667 5.92717167) // 276
    (-3.62650768 1.41831317 5.22063913) // 277
    (-2.62650065 0.29597891 4.46150047) // 278
    (-3.21803486 0.75577929 4.48780352) // 279
    (-4.26560877 0.49075605 3.24982154) // 280
    (-5.24900777 1.74410722 4.67580685) // 281
    (-4.61792420 1.33896688 4.65765264) // 282
    (-4.12622470 0.71229129 3.94465998) // 283
    (-3.66230046 1.36027818 6.05654290) // 284
    (-3.82457055 1.14705235 5.34802067) // 285
    (-2.72925075 0.11910664 4.58674417) // 286
    (-3.35804569 0.52646659 4.61312130) // 287
    (-4.37825808 0.17506756 3.37152227) // 288
    (-5.46956429 1.33100750 4.80129514) // 289
    (-4.80618688 0.98124496 4.78309271) // 290
    (-4.26053378 0.40327499 4.06820627) // 291
    (-3.86042838 1.07506680 6.18569856) // 292
    (-4.00161893 0.85327461 5.47529442) // 293
    (-2.82018316 -0.07275164 4.71199590) // 294
    (-3.48149632 0.27936539 4.73844309) // 295
    (-4.46749442 -0.15571248 3.49342051) // 296
    (-5.65680834 0.89424696 4.92677827) // 297
    (-4.96606685 0.60222307 4.90853020) // 298
    (-4.37140990 0.07724335 4.19185132) // 299
    (-4.03537539 0.76713957 6.31465281) // 300
    (-4.15535038 0.53866937 5.60246747) // 301
    (-2.89751267 -0.27878650 4.83725513) // 302
    (-3.58641902 0.01570634 4.86376863) // 303
    (-4.53159101 -0.49983828 3.61550340) // 304
    (-5.80842925 0.43654907 5.05225657) // 305
    (-5.09539944 0.20419450 5.03396527) // 306
    (-4.45698031 -0.26399918 4.31558869) // 307
    (-4.18483420 0.43845204 6.44341879) // 308
    (-4.28360191 0.20514598 5.72954638) // 309
    (-2.95951576 -0.49799570 4.96252136) // 310
    (-3.67094269 -0.26307789 4.98909767) // 311
    (-4.56895468 -0.85537946 3.73775900) // 312
    (-5.92233830 -0.03914903 5.17773036) // 313
    (-5.19220667 -0.21034038 5.15939810) // 314
    (-4.51551486 -0.61845559 4.43941241) // 315
    (-4.30666499 0.09117611 6.57200865) // 316
    (-4.38437002 -0.14517781 5.85653724) // 317
    (-3.00454981 -0.72918978 5.08779415) // 318
    (-3.73331242 -0.55536075 5.11442999) // 319
    (-4.56340088 -1.22246531 3.86095941) // 320
    (-5.99359752 -0.55468110 5.30317947) // 321
    (-5.24982619 -0.65060732 5.28481857) // 322
    (-4.53472788 -0.98449942 4.56370855) // 323
    (-4.40032938 -0.26692227 6.69963510) // 324
    (-4.45319212 -0.50672790 5.98304639) // 325
    (-3.02069021 -0.94383762 5.21310281) // 326
    (-3.76337254 -0.84518557 5.23978025) // 327
    (-4.53406968 -1.59210018 3.98380811) // 328
    (-6.01702561 -1.05852187 5.42863776) // 329
    (-5.26773537 -1.08951438 5.41024365) // 330
    (-4.52625740 -1.35630353 4.68782882) // 331
    (-4.45494708 -0.64120222 6.82762018) // 332
    (-4.48669611 -0.88085456 6.10973486) // 333
    (-3.02155891 -1.18802288 5.33839812) // 334
    (-3.77000202 -1.15426489 5.36512383) // 335
    (-4.47616827 -1.96468626 4.10667413) // 336
    (-5.99792945 -1.56392348 5.55409560) // 337
    (-5.24865915 -1.53247205 5.53566849) // 338
    (-4.48777855 -1.73285343 4.81195775) // 339
    (-4.47553438 -1.02584334 6.95558761) // 340
    (-4.48746161 -1.26343198 6.23641449) // 341
    (-3.00208172 -1.44368044 5.46369409) // 342
    (-3.75073528 -1.47235052 5.49046773) // 343
    (-4.38734247 -2.33822829 4.22965706) // 344
    (-5.93608613 -2.07252310 5.67955039) // 345
    (-5.19201587 -1.97896312 5.66109181) // 346
    (-4.41764404 -2.11181571 4.93614515) // 347
    (-4.46257092 -1.41734718 7.08343581) // 348
    (-4.45525826 -1.65137516 6.36303452) // 349
    (-2.96058473 -1.70384236 5.58899449) // 350
    (-3.70426517 -1.79462275 5.61581386) // 351
    (-4.26706741 -2.71012730 4.35275016) // 352
    (-5.83091188 -2.58070146 5.80500230) // 353
    (-5.09715780 -2.42578900 5.78651369) // 354
    (-4.31523557 -2.49050192 5.06038762) // 355
    (-4.41515024 -1.81277991 7.21117168) // 356
    (-4.38927698 -2.04182823 6.48959838) // 357
    (-2.89623062 -1.96657339 5.71429908) // 358
    (-3.62981717 -2.11872497 5.74116208) // 359
    (-4.11504048 -3.07770641 4.47594711) // 360
    (-5.68212820 -3.08476941 5.93045150) // 361
    (-4.96370958 -2.86967283 5.91193421) // 362
    (-4.18016572 -2.86614133 5.18468202) // 363
    (-4.33262090 -2.20911154 7.33880166) // 364
    (-4.28895593 -2.43184390 6.61610929) // 365
    (-2.80835564 -2.22983485 5.83960760) // 366
    (-3.52682330 -2.44220556 5.86651227) // 367
    (-3.93119026 -3.43823023 4.59924203) // 368
    (-5.48976924 -3.58099361 6.05589813) // 369
    (-4.79157647 -3.30728265 6.03735346) // 370
    (-4.01228698 -3.23590096 5.30902540) // 371
    (-4.21459574 -2.60323778 7.46633173) // 372
    (-4.15398972 -2.81840474 6.74257026) // 373
    (-2.69648048 -2.49150048 5.96491985) // 374
    (-3.39493208 -2.76253609 5.99186431) // 375
    (-3.71568384 -3.78892518 4.72262941) // 376
    (-5.25418694 -4.06562287 6.18134235) // 377
    (-4.58095058 -3.73525539 6.16277149) // 378
    (-3.81169903 -3.59690655 5.43341502) // 379
    (-4.06095938 -2.99200283 7.59376752) // 380
    (-3.98433680 -3.19844537 6.86898407) // 381
    (-2.56031969 -2.74937318 6.09023561) // 382
    (-3.23401696 -3.07713054 6.11721812) // 383
    (-3.46893227 -4.12700056 4.84610414) // 384
    (-4.97605406 -4.53491503 6.30678429) // 385
    (-4.33231514 -4.15022147 6.28818838) // 386
    (-3.57875425 -3.94626423 5.55784831) // 387
    (-3.87187369 -3.37222277 7.72111425) // 388
    (-3.78022496 -3.56887533 6.99535336) // 389
    (-2.39978966 -3.00120277 6.21555468) // 390
    (-3.04418294 -3.38336533 6.24257358) // 391
    (-3.19159407 -4.44967026 4.96966140) // 392
    (-4.65636483 -4.98516431 6.43222407) // 393
    (-4.04644653 -4.54882991 6.41360420) // 394
    (-3.31406115 -4.28108288 5.68232286) // 395
    (-3.64778130 -3.74070960 7.84837682) // 396
    (-3.54215477 -3.92660255 7.12168057) // 397
    (-2.21501484 -3.24470450 6.34087689) // 398
    (-2.82577154 -3.67860000 6.36793061) // 399
    (-2.87833895 -4.74857676 5.09356173) // 400
    (-4.28422767 -5.42036910 6.55765489) // 401
    (-3.71703070 -4.92978281 6.53901553) // 402
    (-3.01408633 -4.59388664 5.80696895) // 403
    (-3.39090375 -4.09233251 7.97528956) // 404
    (-3.27036874 -4.26576452 7.24783287) // 405
    (-2.01336191 -3.46268134 6.46621211) // 406
    (-2.58159782 -3.95093893 6.49329415) // 407
    (-2.53629200 -5.02319492 5.21753962) // 408
    (-3.87260799 -5.82184190 6.68308369) // 409
    (-3.35173541 -5.28232510 6.66442586) // 410
    (-2.68357741 -4.88300160 5.93165382) // 411
    (-3.09842242 -4.42242760 8.10212321) // 412
    (-2.96464262 -4.58261795 7.37394562) // 413
    (-1.78667282 -3.66818673 6.59155029) // 414
    (-2.30876783 -4.20549751 6.61865916) // 415
    (-2.17110262 -5.27559830 5.34143709) // 416
    (-3.43383202 -6.18367039 6.80851458) // 417
    (-2.95860886 -5.60354209 6.78983723) // 418
    (-2.32724416 -5.14950604 6.05629848) // 419
    (-2.77191813 -4.72923663 8.22903888) // 420
    (-2.62765192 -4.87632521 7.50009938) // 421
    (-1.53019254 -3.86731652 6.71688541) // 422
    (-2.00678912 -4.44536515 6.74402264) // 423
    (-1.78160296 -5.50146727 5.46539105) // 424
    (-2.96201024 -6.51210456 6.93394400) // 425
    (-2.53554491 -5.89524759 6.91524786) // 426
    (-1.94534127 -5.38992894 6.18097139) // 427
    (-2.41621174 -5.01158774 8.35589692) // 428
    (-2.26264567 -5.14498918 7.62622432) // 429
    (-1.25312370 -4.04856474 6.84222267) // 430
    (-1.68110164 -4.66347768 6.86938720) // 431
    (-1.36973156 -5.69851175 5.58939880) // 432
    (-2.45971583 -6.80418345 7.05937201) // 433
    (-2.08478743 -6.15471197 7.04065779) // 434
    (-1.53979530 -5.60187611 6.30567119) // 435
    (-2.03317237 -5.26678482 8.48270013) // 436
    (-1.87151570 -5.38601265 7.75232185) // 437
    (-0.95672315 -4.20989774 6.96756198) // 438
    (-1.33329109 -4.85756911 6.99475278) // 439
    (-0.93763928 -5.86458493 5.71345776) // 440
    (-1.92978318 -7.05714654 7.18479868) // 441
    (-1.60882486 -6.37937843 7.16606705) // 442
    (-1.11275290 -5.78309762 6.43039659) // 443
    (-1.62491208 -5.49227726 8.60945112) // 444
    (-1.45638930 -5.59694379 7.87839327) // 445
    (-0.64244232 -4.34937197 7.09290323) // 446
    (-0.96515443 -5.02549114 7.12011933) // 447
    (-0.48767838 -5.99770265 5.83756551) // 448
    (-1.37529216 -7.26845650 7.31022408) // 449
    (-1.11037675 -6.56688465 7.29147568) // 450
    (-0.66656986 -5.93150772 6.55514639) // 451
    (-1.19377437 -5.68568151 8.73615236) // 452
    (-1.01961786 -5.77549715 8.00443982) // 453
    (-0.31192049 -4.46515216 7.21824633) // 454
    (-0.57869092 -5.16523248 7.24548680) // 455
    (-0.02239003 -6.09606199 5.96171977) // 456
    (-0.79955036 -7.43582072 7.43564827) // 457
    (-0.59237839 -6.71508331 7.41688369) // 458
    (-0.20379823 -6.04520395 6.67991945) // 459
    (-0.74232081 -5.84480157 8.86280617) // 460
    (-0.56376362 -5.91957374 8.13046265) // 461
    (0.03302351 -4.55552895 7.34359120) // 462
    (-0.17609146 -5.27493743 7.37085516) // 463
    (0.45550993 -6.15805882 6.08591837) // 464
    (-0.20607351 -7.55721144 7.56107129) // 465
    (-0.05796360 -6.82206145 7.54229113) // 466
    (0.27282812 -6.12248515 6.80471467) // 467
    (-0.27331588 -5.96764854 8.98941477) // 468
    (-0.09158479 -6.02728000 8.25646287) // 469
    (0.39040129 -4.61893581 7.46893776) // 470
    (0.24027380 -5.35292364 7.49622436) // 471
    (0.94314689 -6.18230424 6.21015929) // 472
    (0.40143581 -7.63088427 7.68649321) // 473
    (0.48955413 -6.88615839 7.66769802) // 474
    (0.76040967 -6.16186837 6.92953106) // 475
    (0.21028989 -6.05245879 9.11598021) // 476
    (0.39398118 -6.09694565 8.38244152) // 477
    (0.75806640 -4.65396525 7.59428591) // 478
    (0.66786943 -5.39769887 7.62159437) // 479
    (1.43747559 -6.16409426 6.33451292) // 480
    (1.02492009 -7.65355262 7.81191219) // 481
    (1.04942758 -6.90403254 7.79310343) // 482
    (1.25570533 -6.15930336 7.05440380) // 483
    (0.70448913 -6.09716657 9.24243073) // 484
    (0.88921210 -6.12583951 8.50836270) // 485
    (1.12721252 -4.65709534 7.71963835) // 486
    (1.10057380 -5.40580390 7.74696651) // 487
    (1.93373843 -6.09756719 6.45904878) // 488
    (1.66398929 -7.61852987 7.93732640) // 489
    (1.61912721 -6.86995259 7.91850646) // 490
    (1.75400178 -6.10947125 7.17936765) // 491
    (1.20456739 -6.09816444 9.36869543) // 492
    (1.38941626 -6.10976987 8.63419098) // 493
    (1.48889488 -4.62544588 7.84499771) // 494
    (1.53158000 -5.37341059 7.87234211) // 495
    (2.42857083 -5.99526330 6.58349617) // 496
    (2.28574349 -7.53241203 8.06274293) // 497
    (2.18083652 -6.78986600 8.04391065) // 498
    (2.25225020 -6.02129163 7.30428727) // 499
    (1.70939339 -6.05332012 9.49505034) // 500
    (1.89266148 -6.05032004 8.76006435) // 501
    (1.87050944 -4.56310582 7.97035370) // 502
    (1.97321950 -5.30521289 7.99771604) // 503
    (2.91925293 -5.85257143 6.70797277) // 504
    (2.90404729 -7.39536605 8.18815869) // 505
    (2.73980237 -6.66365351 8.16931446) // 506
    (2.74740519 -5.89225620 7.42922149) // 507
    (2.21438487 -5.96650207 9.62137546) // 508
    (2.39497116 -5.94922152 8.88592284) // 509
    (2.25147482 -4.46904806 8.09571081) // 510
    (2.41351614 -5.20049451 8.12309051) // 511
    (3.40246156 -5.66951434 6.83247740) // 512
    (3.51471155 -7.20741891 8.31357372) // 513
    (3.29221741 -6.49126561 8.29471790) // 514
    (3.23609241 -5.72231332 7.55416974) // 515
    (2.71603600 -5.83742755 9.74767200) // 516
    (2.89287963 -5.80626993 9.01176703) // 517
    (2.62912952 -4.34299545 8.22106898) // 518
    (2.84942639 -5.05905388 8.24846552) // 519
    (3.87485189 -5.44639043 6.95700896) // 520
    (4.11353138 -6.96894319 8.43898805) // 521
    (3.83425072 -6.27296827 8.42012098) // 522
    (3.71491097 -5.51169189 7.67913144) // 523
    (3.21079922 -5.66610733 9.87394108) // 524
    (3.38288464 -5.62155034 9.13759750) // 525
    (3.00076516 -4.18489606 8.34642817) // 526
    (3.27786761 -4.88094471 8.37384104) // 527
    (4.33308046 -5.18377712 7.08156640) // 528
    (4.69631466 -6.68065962 8.56440170) // 529
    (4.36207405 -6.00934629 8.54552373) // 530
    (4.18045695 -5.26090504 7.80410608) // 531
    (3.69510978 -5.45285041 10.00018378) // 532
    (3.86147161 -5.39544169 9.26341477) // 533
    (3.36364574 -3.99492867 8.47178834) // 534
    (3.69573959 -4.66648082 8.49921706) // 535
    (4.77382861 -4.88253247 7.20614870) // 536
    (5.25891100 -6.34363723 8.68981470) // 537
    (4.87188842 -5.70130438 8.67092616) // 538
    (4.62934723 -4.97075200 7.92909316) // 539
    (4.16541087 -5.19826665 10.12640112) // 540
    (4.32513835 -5.12861909 9.38921937) // 541
    (3.71502735 -3.77350672 8.59714946) // 542
    (4.09994659 -4.41623912 8.62459354) // 543
    (5.19382613 -4.54379474 7.33075490) // 544
    (5.79724061 -5.95929119 8.81522708) // 545
    (5.35995084 -5.35006608 8.79632827) // 546
    (5.05824360 -4.64231785 8.05409219) // 547
    (4.61817891 -4.90326730 10.25259408) // 548
    (4.77041999 -4.82205413 9.51501178) // 549
    (4.05217834 -3.52128053 8.72251149) // 550
    (4.48741970 -4.13106075 8.74997048) // 551
    (5.58987502 -4.16897993 7.45538411) // 552
    (6.30732321 -5.52937814 8.94063885) // 553
    (5.82260112 -4.95717040 8.92173008) // 554
    (5.46387702 -4.27697129 8.17910271) // 555
    (5.04994910 -4.56906339 10.37876360) // 556
    (5.19391406 -4.47701302 9.64079246) // 557
    (4.37239982 -3.23913782 8.84787438) // 558
    (4.85513942 -3.81205024 8.87534785) // 559
    (5.95887311 -3.75977736 7.58003543) // 560
    (6.78530659 -5.05598919 9.06605005) // 561
    (6.25628844 -4.52446626 9.04713161) // 562
    (5.84307170 -3.87636035 8.30412430) // 563
    (5.45734083 -4.19716196 10.50491056) // 564
    (5.59230555 -4.09505265 9.76656186) // 565
    (4.67304626 -2.92820238 8.97323812) // 566
    (5.20015827 -3.46057286 9.00072564) // 567
    (6.28807592 -3.31073957 7.70486711) // 568
    (7.23413145 -4.52170103 9.19145653) // 569
    (6.65754211 -4.04219994 9.17253077) // 570
    (6.18451435 -3.43671921 8.42923606) // 571
    (5.83298634 -3.78939801 10.63087361) // 572
    (5.95696956 -3.67604844 9.89223931) // 573
    (4.93139185 -2.60167393 9.09860871) // 574
    (5.50617231 -3.08218640 9.12610686) // 575
    (6.58651264 -2.83585400 7.82963420) // 576
    (7.62829594 -3.96467188 9.31686471) // 577
    (7.01507843 -3.53300009 9.29793079) // 578
    (6.49418678 -2.96859115 8.55431553) // 579
    (6.17450254 -3.34485525 10.75690252) // 580
    (6.28818173 -3.22309177 10.01794969) // 581
    (5.17885090 -2.23570535 9.22397684) // 582
    (5.79035591 -2.66851682 9.25148685) // 583
    (6.84901996 -2.33448981 7.95441463) // 584
    (7.97891616 -3.37420625 9.44227253) // 585
    (7.33321335 -2.99283527 9.42333062) // 586
    (6.76826525 -2.47297705 8.67940167) // 587
    (6.48170774 -2.86991971 10.88291783) // 588
    (6.58460914 -2.74069200 10.14365327) // 589
    (5.39932085 -1.84620525 9.34934548) // 590
    (6.04341570 -2.22883477 9.37686710) // 591
    (7.07313732 -1.80929559 8.07921041) // 592
    (8.28352491 -2.75312669 9.56767995) // 593
    (7.60945981 -2.42447506 9.54873026) // 594
    (7.00426601 -1.95255951 8.80449549) // 595
    (6.75204650 -2.36737406 11.00891749) // 596
    (6.84372060 -2.23159875 10.26934903) // 597
    (5.59025567 -1.43578364 9.47471470) // 598
    (6.26282519 -1.76580354 9.50224763) // 599
    (7.25672691 -1.26323168 8.20402104) // 600
    (8.53947129 -2.10504300 9.69308699) // 601
    (7.84134450 -1.83119206 9.67412970) // 602
    (7.19997231 -1.41028640 8.92959673) // 603
    (6.98307317 -1.84010679 11.13490200) // 604
    (7.06314544 -1.69872395 10.39503721) // 605
    (5.74971630 -1.00670240 9.60008449) // 606
    (6.44646700 -1.28202176 9.62762845) // 607
    (7.39788112 -0.69944826 8.32884604) // 608
    (8.74438953 -1.43379283 9.81849365) // 609
    (8.02665173 -1.21647384 9.79952896) // 610
    (7.35339753 -0.84930156 9.05470515) // 611
    (7.17257052 -1.29122030 11.26087186) // 612
    (7.24074223 -1.14518758 10.52071806) // 613
    (5.87593895 -0.56139983 9.72545482) // 614