/*--------------------------------*- C++ -*----------------------------------*\
| =========                 |                                                 |
| \\      /  F ield         | OpenFOAM: The Open Source CFD Toolbox           |
|  \\    /   O peration     | Version:  v1806                                 |
|   \\  /    A nd           | Web:      www.OpenFOAM.com                      |
|    \\/     M anipulation  |                                                 |
\*---------------------------------------------------------------------------*/
FoamFile
{
    version     2.0;
    format      ascii;
    class       dictionary;
    object      blockMeshDict;
}
// * * * * * * * * * * * * * * * * * * * * * * * * * * * * * * * * * * * * * //

scale   1;

// the updated blockMesh (openfoam.com) fails on some meshes with default options;
// it reports report inconsistent number of faces although the mesh is still OK.
// this happens where two 'wedge' blocks with different numbers of cells join in the same
// point/edge.
mergeType points;
checkFaceCorrespondence false;



vertices
(
    
    (-0.01862821 -0.01246094 0.00000477) // 0
    (-0.01862828 -0.01346063 0.00004532) // 1
    (-0.01900000 -0.01346063 0.00004056) // 2
    (-0.01900000 -0.01246094 -0.00000000) // 3
    (-0.01862650 -0.01246094 -0.00097955) // 4
    (-0.01862696 -0.01321875 -0.00071402) // 5
    (-0.01900000 -0.01321875 -0.00071883) // 6
    (-0.01900000 -0.01246094 -0.00098438) // 7
    (-0.01825641 -0.01246094 0.00000954) // 8
    (-0.01825655 -0.01346063 0.00005009) // 9
    (-0.01825300 -0.01246094 -0.00097472) // 10
    (-0.01825392 -0.01321875 -0.00070921) // 11
    (-0.01788462 -0.01246094 0.00001431) // 12
    (-0.01788483 -0.01346063 0.00005486) // 13
    (-0.01787951 -0.01246094 -0.00096989) // 14
    (-0.01788088 -0.01321875 -0.00070440) // 15
    (-0.01751282 -0.01246094 0.00001908) // 16
    (-0.01751310 -0.01346063 0.00005963) // 17
    (-0.01750601 -0.01246094 -0.00096507) // 18
    (-0.01750784 -0.01321875 -0.00069959) // 19
    (-0.01714103 -0.01246094 0.00002385) // 20
    (-0.01714138 -0.01346063 0.00006439) // 21
    (-0.01713251 -0.01246094 -0.00096024) // 22
    (-0.01713481 -0.01321875 -0.00069477) // 23
    (-0.01676923 -0.01246094 0.00002862) // 24
    (-0.01676965 -0.01346063 0.00006916) // 25
    (-0.01675901 -0.01246094 -0.00095541) // 26
    (-0.01676177 -0.01321875 -0.00068996) // 27
    (-0.01639744 -0.01246094 0.00003339) // 28
    (-0.01639793 -0.01346063 0.00007393) // 29
    (-0.01638551 -0.01246094 -0.00095058) // 30
    (-0.01638873 -0.01321875 -0.00068515) // 31
    (-0.01602564 -0.01246094 0.00003816) // 32
    (-0.01602620 -0.01346063 0.00007869) // 33
    (-0.01601201 -0.01246094 -0.00094576) // 34
    (-0.01601569 -0.01321875 -0.00068034) // 35
    (-0.01565385 -0.01246094 0.00004293) // 36
    (-0.01565448 -0.01346063 0.00008346) // 37
    (-0.01563852 -0.01246094 -0.00094093) // 38
    (-0.01564265 -0.01321875 -0.00067553) // 39
    (-0.01528205 -0.01246094 0.00004770) // 40
    (-0.01528275 -0.01346063 0.00008823) // 41
    (-0.01526502 -0.01246094 -0.00093610) // 42
    (-0.01526961 -0.01321875 -0.00067072) // 43
    (-0.01491026 -0.01246094 0.00005247) // 44
    (-0.01491103 -0.01346063 0.00009300) // 45
    (-0.01489152 -0.01246094 -0.00093127) // 46
    (-0.01489657 -0.01321875 -0.00066590) // 47
    (-0.01453846 -0.01246094 0.00005724) // 48
    (-0.01453930 -0.01346063 0.00009776) // 49
    (-0.01451802 -0.01246094 -0.00092645) // 50
    (-0.01452353 -0.01321875 -0.00066109) // 51
    (-0.01416667 -0.01246094 0.00006201) // 52
    (-0.01416758 -0.01346063 0.00010253) // 53
    (-0.01414452 -0.01246094 -0.00092162) // 54
    (-0.01415050 -0.01321875 -0.00065628) // 55
    (-0.01379487 -0.01246094 0.00006678) // 56
    (-0.01379585 -0.01346063 0.00010730) // 57
    (-0.01377102 -0.01246094 -0.00091679) // 58
    (-0.01377746 -0.01321875 -0.00065147) // 59
    (-0.01342308 -0.01246094 0.00007155) // 60
    (-0.01342413 -0.01346063 0.00011207) // 61
    (-0.01339753 -0.01246094 -0.00091197) // 62
    (-0.01340442 -0.01321875 -0.00064666) // 63
    (-0.01305128 -0.01246094 0.00007632) // 64
    (-0.01305240 -0.01346063 0.00011683) // 65
    (-0.01302403 -0.01246094 -0.00090714) // 66
    (-0.01303138 -0.01321875 -0.00064185) // 67
    (-0.01267949 -0.01246094 0.00008109) // 68
    (-0.01268068 -0.01346063 0.00012160) // 69
    (-0.01265053 -0.01246094 -0.00090231) // 70
    (-0.01265834 -0.01321875 -0.00063703) // 71
    (-0.01230769 -0.01246094 0.00008586) // 72
    (-0.01230896 -0.01346063 0.00012637) // 73
    (-0.01227703 -0.01246094 -0.00089748) // 74
    (-0.01228530 -0.01321875 -0.00063222) // 75
    (-0.01193590 -0.01246094 0.00009062) // 76
    (-0.01193723 -0.01346063 0.00013114) // 77
    (-0.01190353 -0.01246094 -0.00089266) // 78
    (-0.01191226 -0.01321875 -0.00062741) // 79
    (-0.01156410 -0.01246094 0.00009539) // 80
    (-0.01156551 -0.01346063 0.00013590) // 81
    (-0.01153003 -0.01246094 -0.00088783) // 82
    (-0.01153922 -0.01321875 -0.00062260) // 83
    (-0.01119266 -0.01246460 0.00010151) // 84
    (-0.01119403 -0.01346382 0.00014207) // 85
    (-0.01115682 -0.01246457 -0.00088189) // 86
    (-0.01116644 -0.01322201 -0.00061637) // 87
    (-0.01082157 -0.01247192 0.00010896) // 88
    (-0.01082280 -0.01347020 0.00014964) // 89
    (-0.01078388 -0.01247185 -0.00087484) // 90
    (-0.01079391 -0.01322853 -0.00060872) // 91
    (-0.01045083 -0.01248290 0.00011776) // 92
    (-0.01045181 -0.01347978 0.00015862) // 93
    (-0.01041122 -0.01248276 -0.00086668) // 94
    (-0.01042163 -0.01323831 -0.00059966) // 95
    (-0.01008044 -0.01249755 0.00012791) // 96
    (-0.01008108 -0.01349254 0.00016899) // 97
    (-0.01003884 -0.01249731 -0.00085740) // 98
    (-0.01004960 -0.01325136 -0.00058918) // 99
    (-0.00971040 -0.01251585 0.00013939) // 100
    (-0.00971059 -0.01350850 0.00018077) // 101
    (-0.00966675 -0.01251549 -0.00084701) // 102
    (-0.00967783 -0.01326767 -0.00057728) // 103
    (-0.00934071 -0.01253782 0.00015222) // 104
    (-0.00934035 -0.01352765 0.00019394) // 105
    (-0.00929493 -0.01253731 -0.00083551) // 106
    (-0.00930631 -0.01328723 -0.00056396) // 107
    (-0.00897138 -0.01256345 0.00016640) // 108
    (-0.00897035 -0.01355000 0.00020852) // 109
    (-0.00892339 -0.01256277 -0.00082290) // 110
    (-0.00893504 -0.01331006 -0.00054922) // 111
    (-0.00860239 -0.01259273 0.00018191) // 112
    (-0.00860060 -0.01357553 0.00022450) // 113
    (-0.00855214 -0.01259186 -0.00080918) // 114
    (-0.00856403 -0.01333615 -0.00053307) // 115
    (-0.00823376 -0.01262568 0.00019878) // 116
    (-0.00823110 -0.01360426 0.00024189) // 117
    (-0.00818116 -0.01262459 -0.00079434) // 118
    (-0.00819327 -0.01336550 -0.00051550) // 119
    (-0.00786548 -0.01266229 0.00021698) // 120
    (-0.00786185 -0.01363618 0.00026067) // 121
    (-0.00781047 -0.01266096 -0.00077839) // 122
    (-0.00782277 -0.01339812 -0.00049651) // 123
    (-0.00749755 -0.01270256 0.00023653) // 124
    (-0.00749284 -0.01367129 0.00028086) // 125
    (-0.00744005 -0.01270097 -0.00076133) // 126
    (-0.00745251 -0.01343399 -0.00047611) // 127
    (-0.00712997 -0.01274650 0.00025742) // 128
    (-0.00712408 -0.01370959 0.00030245) // 129
    (-0.00706992 -0.01274461 -0.00074316) // 130
    (-0.00708251 -0.01347312 -0.00045429) // 131
    (-0.00676274 -0.01279409 0.00027965) // 132
    (-0.00675557 -0.01375108 0.00032544) // 133
    (-0.00670007 -0.01279189 -0.00072388) // 134
    (-0.00671277 -0.01351552 -0.00043104) // 135
    (-0.00639587 -0.01284534 0.00030323) // 136
    (-0.00638730 -0.01379577 0.00034983) // 137
    (-0.00633049 -0.01284280 -0.00070348) // 138
    (-0.00634327 -0.01356118 -0.00040639) // 139
    (-0.00602934 -0.01290026 0.00032815) // 140
    (-0.00601928 -0.01384364 0.00037562) // 141
    (-0.00596120 -0.01289735 -0.00068197) // 142
    (-0.00597404 -0.01361010 -0.00038031) // 143
    (-0.00566317 -0.01295883 0.00035441) // 144
    (-0.00565151 -0.01389471 0.00040282) // 145
    (-0.00559219 -0.01295554 -0.00065935) // 146
    (-0.00560505 -0.01366228 -0.00035282) // 147
    (-0.00529735 -0.01302107 0.00038202) // 148
    (-0.00528399 -0.01394897 0.00043141) // 149
    (-0.00522345 -0.01301737 -0.00063562) // 150
    (-0.00523632 -0.01371772 -0.00032391) // 151
    (-0.00493188 -0.01308697 0.00041097) // 152
    (-0.00491671 -0.01400643 0.00046141) // 153
    (-0.00485500 -0.01308283 -0.00061078) // 154
    (-0.00486784 -0.01377642 -0.00029358) // 155
    (-0.00456676 -0.01315652 0.00044126) // 156
    (-0.00454968 -0.01406706 0.00049281) // 157
    (-0.00448683 -0.01315192 -0.00058482) // 158
    (-0.00449961 -0.01383838 -0.00026183) // 159
    (-0.00415978 -0.01323441 0.00047669) // 160
    (-0.00412693 -0.01413795 0.00053082) // 161
    (-0.00407666 -0.01323038 -0.00055453) // 162
    (-0.00407847 -0.01391075 -0.00022353) // 163
    (-0.00375225 -0.01330714 0.00051373) // 164
    (-0.00370368 -0.01420580 0.00057059) // 165
    (-0.00366604 -0.01330298 -0.00052270) // 166
    (-0.00365696 -0.01397921 -0.00018347) // 167
    (-0.00334432 -0.01337106 0.00055215) // 168
    (-0.00328022 -0.01426468 0.00061167) // 169
    (-0.00325509 -0.01336652 -0.00048944) // 170
    (-0.00323529 -0.01403855 -0.00014212) // 171
    (-0.00293601 -0.01342603 0.00059195) // 172
    (-0.00285657 -0.01431431 0.00065405) // 173
    (-0.00284382 -0.01342092 -0.00045475) // 174
    (-0.00281348 -0.01408859 -0.00009947) // 175
    (-0.00252734 -0.01347202 0.00063313) // 176
    (-0.00243273 -0.01435465 0.00069774) // 177
    (-0.00243225 -0.01346612 -0.00041863) // 178
    (-0.00239153 -0.01412931 -0.00005553) // 179
    (-0.00211832 -0.01350897 0.00067569) // 180
    (-0.00200873 -0.01438565 0.00074273) // 181
    (-0.00202039 -0.01350208 -0.00038106) // 182
    (-0.00196946 -0.01416064 -0.00001028) // 183
    (-0.00170897 -0.01353685 0.00071964) // 184
    (-0.00158456 -0.01440725 0.00078905) // 185
    (-0.00160828 -0.01352874 -0.00034206) // 186
    (-0.00154727 -0.01418255 0.00003627) // 187
    (-0.00129930 -0.01355559 0.00076498) // 188
    (-0.00116025 -0.01441941 0.00083668) // 189
    (-0.00119591 -0.01354606 -0.00030160) // 190
    (-0.00112498 -0.01419500 0.00008414) // 191
    (-0.00088934 -0.01356517 0.00081172) // 192
    (-0.00073579 -0.01442208 0.00088564) // 193
    (-0.00078332 -0.01355400 -0.00025968) // 194
    (-0.00070259 -0.01419793 0.00013333) // 195
    (-0.00047909 -0.01356554 0.00085987) // 196
    (-0.00031119 -0.01441521 0.00093593) // 197
    (-0.00037051 -0.01355251 -0.00021631) // 198
    (-0.00028011 -0.01419131 0.00018384) // 199
    (-0.00006858 -0.01355666 0.00090942) // 200
    (0.00011352 -0.01439877 0.00098756) // 201
    (0.00004249 -0.01354156 -0.00017147) // 202
    (0.00014245 -0.01417509 0.00023567) // 203
    (0.00034217 -0.01353849 0.00096038) // 204
    (0.00053835 -0.01437270 0.00104053) // 205
    (0.00045566 -0.01352109 -0.00012517) // 206
    (0.00056508 -0.01414924 0.00028885) // 207
    (0.00075316 -0.01351100 0.00101275) // 208
    (0.00096328 -0.01433696 0.00109485) // 209
    (0.00086900 -0.01349109 -0.00007739) // 210
    (0.00098777 -0.01411370 0.00034336) // 211
    (0.00116436 -0.01347413 0.00106654) // 212
    (0.00138831 -0.01429150 0.00115052) // 213
    (0.00128248 -0.01345149 -0.00002813) // 214
    (0.00141051 -0.01406845 0.00039921) // 215
    (0.00157576 -0.01342787 0.00112175) // 216
    (0.00181342 -0.01423629 0.00120755) // 217
    (0.00169609 -0.01340228 0.00002260) // 218
    (0.00183329 -0.01401344 0.00045641) // 219
    (0.00198734 -0.01337218 0.00117839) // 220
    (0.00223861 -0.01417127 0.00126594) // 221
    (0.00210980 -0.01334342 0.00007482) // 222
    (0.00225610 -0.01394862 0.00051496) // 223
    (0.00239909 -0.01330702 0.00123645) // 224
    (0.00266386 -0.01409641 0.00132569) // 225
    (0.00252360 -0.01327487 0.00012852) // 226
    (0.00267894 -0.01387397 0.00057486) // 227
    (0.00281098 -0.01323237 0.00129593) // 228
    (0.00308917 -0.01401166 0.00138682) // 229
    (0.00293748 -0.01319659 0.00018372) // 230
    (0.00310180 -0.01378945 0.00063613) // 231
    (0.00322300 -0.01314819 0.00135685) // 232
    (0.00351452 -0.01391698 0.00144931) // 233
    (0.00335141 -0.01310857 0.00024040) // 234
    (0.00352466 -0.01369501 0.00069875) // 235
    (0.00363258 -0.01305054 0.00141769) // 236
    (0.00393741 -0.01380896 0.00151160) // 237
    (0.00376270 -0.01300695 0.00029732) // 238
    (0.00394497 -0.01358718 0.00076115) // 239
    (0.00403925 -0.01293951 0.00147844) // 240
    (0.00435741 -0.01368766 0.00157369) // 241
    (0.00417088 -0.01289181 0.00035448) // 242
    (0.00436230 -0.01346603 0.00082330) // 243
    (0.00444255 -0.01281517 0.00153913) // 244
    (0.00477407 -0.01355314 0.00163556) // 245
    (0.00457547 -0.01276326 0.00041188) // 246
    (0.00477620 -0.01333162 0.00088523) // 247
    (0.00484203 -0.01267763 0.00159973) // 248
    (0.00518697 -0.01340549 0.00169723) // 249
    (0.00497604 -0.01262141 0.00046951) // 250
    (0.00518625 -0.01318405 0.00094692) // 251
    (0.00523724 -0.01252702 0.00166025) // 252
    (0.00559568 -0.01324479 0.00175869) // 253
    (0.00537211 -0.01246638 0.00052738) // 254
    (0.00559201 -0.01302343 0.00100838) // 255
    (0.00562772 -0.01236346 0.00172069) // 256
    (0.00599978 -0.01307116 0.00181995) // 257
    (0.00576324 -0.01229834 0.00058549) // 258
    (0.00599305 -0.01284986 0.00106960) // 259
    (0.00601304 -0.01218712 0.00178106) // 260
    (0.00639883 -0.01288473 0.00188100) // 261
    (0.00614897 -0.01211743 0.00064383) // 262
    (0.00638894 -0.01266349 0.00113059) // 263
    (0.00639276 -0.01199816 0.00184135) // 264
    (0.00679242 -0.01268562 0.00194184) // 265
    (0.00652888 -0.01192385 0.00070241) // 266
    (0.00677926 -0.01246446 0.00119134) // 267
    (0.00676644 -0.01179676 0.00190156) // 268
    (0.00718013 -0.01247400 0.00200247) // 269
    (0.00690252 -0.01171778 0.00076123) // 270
    (0.00716359 -0.01225293 0.00125186) // 271
    (0.00713366 -0.01158313 0.00196169) // 272
    (0.00756154 -0.01225003 0.00206290) // 273
    (0.00726948 -0.01149943 0.00082028) // 274
    (0.00754152 -0.01202908 0.00131215) // 275
    (0.00749400 -0.01135747 0.00202174) // 276
    (0.00793625 -0.01201389 0.00212312) // 277
    (0.00762931 -0.01126904 0.00087957) // 278
    (0.00791263 -0.01179310 0.00137220) // 279
    (0.00784705 -0.01112001 0.00208171) // 280
    (0.00830385 -0.01176578 0.00218314) // 281
    (0.00798163 -0.01102683 0.00093910) // 282
    (0.00827652 -0.01154519 0.00143202) // 283
    (0.00819241 -0.01087101 0.00214161) // 284
    (0.00866394 -0.01150590 0.00224294) // 285
    (0.00832601 -0.01077307 0.00099886) // 286
    (0.00863279 -0.01128557 0.00149161) // 287
    (0.00852967 -0.01061070 0.00220142) // 288
    (0.00901613 -0.01123447 0.00230254) // 289
    (0.00866208 -0.01050803 0.00105886) // 290
    (0.00898106 -0.01101448 0.00155096) // 291
    (0.00885846 -0.01033938 0.00226116) // 292
    (0.00936003 -0.01095174 0.00236194) // 293
    (0.00898943 -0.01023198 0.00111910) // 294
    (0.00932093 -0.01073215 0.00161007) // 295
    (0.00917839 -0.01005731 0.00232082) // 296
    (0.00969527 -0.01065795 0.00242112) // 297
    (0.00930770 -0.00994522 0.00117957) // 298
    (0.00965203 -0.01043884 0.00166896) // 299
    (0.00948910 -0.00976480 0.00238040) // 300
    (0.01002148 -0.01035336 0.00248010) // 301
    (0.00961651 -0.00964806 0.00124029) // 302
    (0.00997400 -0.01013484 0.00172760) // 303
    (0.00979024 -0.00946216 0.00243990) // 304
    (0.01033828 -0.01003824 0.00253887) // 305
    (0.00991552 -0.00934083 0.00130123) // 306
    (0.01028646 -0.00982041 0.00178602) // 307
    (0.01008145 -0.00914971 0.00249933) // 308
    (0.01064532 -0.00971289 0.00259744) // 309
    (0.01020439 -0.00902385 0.00136242) // 310
    (0.01058907 -0.00949585 0.00184420) // 311
    (0.01036240 -0.00882779 0.00255867) // 312
    (0.01094226 -0.00937760 0.00265580) // 313
    (0.01048277 -0.00869747 0.00142384) // 314
    (0.01088149 -0.00916148 0.00190215) // 315
    (0.01063278 -0.00849674 0.00261794) // 316
    (0.01122876 -0.00903268 0.00271395) // 317
    (0.01075036 -0.00836206 0.00148550) // 318
    (0.01116339 -0.00881762 0.00195986) // 319
    (0.01089226 -0.00815693 0.00267713) // 320
    (0.01150449 -0.00867846 0.00277189) // 321
    (0.01100684 -0.00801798 0.00154740) // 322
    (0.01143443 -0.00846459 0.00201734) // 323
    (0.01114055 -0.00780871 0.00273624) // 324
    (0.01176913 -0.00831526 0.00282963) // 325
    (0.01125193 -0.00766560 0.00160953) // 326
    (0.01169431 -0.00810273 0.00207458) // 327
    (0.01137736 -0.00745247 0.00279527) // 328
    (0.01202238 -0.00794345 0.00288716) // 329
    (0.01148533 -0.00730533 0.00167190) // 330
    (0.01194272 -0.00773241 0.00213159) // 331
    (0.01160242 -0.00708860 0.00285422) // 332
    (0.01226393 -0.00756336 0.00294449) // 333
    (0.01170679 -0.00693755 0.00173450) // 334
    (0.01217938 -0.00735399 0.00218837) // 335
    (0.01181548 -0.00671750 0.00291310) // 336
    (0.01249349 -0.00717538 0.00300160) // 337
    (0.01191605 -0.00656269 0.00179735) // 338
    (0.01240401 -0.00696783 0.00224491) // 339
    (0.01201628 -0.00633958 0.00297189) // 340
    (0.01271081 -0.00677987 0.00305851) // 341
    (0.01211287 -0.00618115 0.00186043) // 342
    (0.01261634 -0.00657433 0.00230122) // 343
    (0.01220460 -0.00595524 0.00303061) // 344
    (0.01291560 -0.00637723 0.00311521) // 345
    (0.01229703 -0.00579336 0.00192374) // 346
    (0.01281611 -0.00617388 0.00235729) // 347
    (0.01238022 -0.00556492 0.00308925) // 348
    (0.01310762 -0.00596785 0.00317171) // 349
    (0.01246832 -0.00539975 0.00198730) // 350
    (0.01300309 -0.00576688 0.00241313) // 351
    (0.01254293 -0.00516905 0.00314781) // 352
    (0.01328664 -0.00555214 0.00322800) // 353
    (0.01262655 -0.00500077 0.00205109) // 354
    (0.01317704 -0.00535375 0.00246874) // 355
    (0.01269256 -0.00476806 0.00320629) // 356
    (0.01345242 -0.00513050 0.00328408) // 357
    (0.01277154 -0.00459686 0.00211512) // 358
    (0.01333775 -0.00493490 0.00252411) // 359
    (0.01282892 -0.00436241 0.00326469) // 360
    (0.01360476 -0.00470338 0.00333996) // 361
    (0.01290312 -0.00418848 0.00217938) // 362
    (0.01348502 -0.00451076 0.00257925) // 363
    (0.01295186 -0.00395254 0.00332302) // 364
    (0.01374345 -0.00427118 0.00339562) // 365
    (0.01302116 -0.00377608 0.00224388) // 366
    (0.01361865 -0.00408176 0.00263415) // 367
    (0.01306125 -0.00353890 0.00338126) // 368
    (0.01386831 -0.00383436 0.00345109) // 369
    (0.01312551 -0.00336013 0.00230862) // 370
    (0.01373848 -0.00364836 0.00268882) // 371
    (0.01315695 -0.00312197 0.00343943) // 372
    (0.01397917 -0.00339336 0.00350634) // 373
    (0.01321607 -0.00294110 0.00237359) // 374
    (0.01384435 -0.00321099 0.00274326) // 375
    (0.01323886 -0.00270220 0.00349752) // 376
    (0.01407588 -0.00294862 0.00356139) // 377
    (0.01329274 -0.00251946 0.00243881) // 378
    (0.01393610 -0.00277012 0.00279746) // 379
    (0.01330688 -0.00228007 0.00355553) // 380
    (0.01415828 -0.00250062 0.00361623) // 381
    (0.01335543 -0.00209568 0.00250425) // 382
    (0.01401361 -0.00232620 0.00285143) // 383
    (0.01336094 -0.00185605 0.00361346) // 384
    (0.01422625 -0.00204981 0.00367086) // 385
    (0.01340408 -0.00167025 0.00256994) // 386
    (0.01407677 -0.00187969 0.00290516) // 387
    (0.01340098 -0.00143061 0.00367131) // 388
    (0.01427969 -0.00159665 0.00372529) // 389
    (0.01343864 -0.00124364 0.00263586) // 390
    (0.01412547 -0.00143108 0.00295866) // 391
    (0.01342696 -0.00100423 0.00372909) // 392
    (0.01431849 -0.00114163 0.00377951) // 393
    (0.01345909 -0.00081633 0.00270202) // 394
    (0.01415964 -0.00098082 0.00301193) // 395
    (0.01343884 -0.00057739 0.00378678) // 396
    (0.01434257 -0.00068523 0.00383352) // 397
    (0.01346540 -0.00038881 0.00276842) // 398
    (0.01417919 -0.00052941 0.00306496) // 399
    (0.01343662 -0.00015057 0.00384440) // 400
    (0.01435187 -0.00022791 0.00388733) // 401
    (0.01345759 0.00003844 0.00283505) // 402
    (0.01418408 -0.00007732 0.00311776) // 403
    (0.01342030 0.00027575 0.00390194) // 404
    (0.01434633 0.00022982 0.00394092) // 405
    (0.01343566 0.00046494 0.00290192) // 406
    (0.01417427 0.00037498 0.00317032) // 407
    (0.01338990 0.00070109 0.00395940) // 408
    (0.01432592 0.00068749 0.00399432) // 409
    (0.01339966 0.00089020 0.00296903) // 410
    (0.01414974 0.00082698 0.00322265) // 411
    (0.01334547 0.00112498 0.00401678) // 412
    (0.01429062 0.00114460 0.00404750) // 413
    (0.01334963 0.00131375 0.00303637) // 414
    (0.01411049 0.00127820 0.00327475) // 415
    (0.01328706 0.00154692 0.00407408) // 416
    (0.01424044 0.00160067 0.00410048) // 417
    (0.01328565 0.00173511 0.00310395) // 418
    (0.01405652 0.00172817 0.00332661) // 419
    (0.01321473 0.00196646 0.00413131) // 420
    (0.01417538 0.00205519 0.00415325) // 421
    (0.01320780 0.00215380 0.00317177) // 422
    (0.01398787 0.00217638 0.00337824) // 423
    (0.01312859 0.00238311 0.00418846) // 424
    (0.01409547 0.00250768 0.00420581) // 425
    (0.01311619 0.00256935 0.00323982) // 426
    (0.01390457 0.00262235 0.00342963) // 427
    (0.01302874 0.00279640 0.00424552) // 428
    (0.01400076 0.00295765 0.00425817) // 429
    (0.01301094 0.00298129 0.00330811) // 430
    (0.01380669 0.00306559 0.00348079) // 431
    (0.01291497 0.00320570 0.00430221) // 432
    (0.01389088 0.00340442 0.00431008) // 433
    (0.01289184 0.00338891 0.00337611) // 434
    (0.01369386 0.00350538 0.00353144) // 435
    (0.01278633 0.00360985 0.00435746) // 436
    (0.01376437 0.00384682 0.00436072) // 437
    (0.01275795 0.00379080 0.00344194) // 438
    (0.01356464 0.00394033 0.00358059) // 439
    (0.01264296 0.00400821 0.00441117) // 440
    (0.01362129 0.00428411 0.00441001) // 441
    (0.01260945 0.00418629 0.00350543) // 442
    (0.01341911 0.00436967 0.00362817) // 443
    (0.01248513 0.00440016 0.00446335) // 444
    (0.01346184 0.00471560 0.00445795) // 445
    (0.01244666 0.00457479 0.00356660) // 446
    (0.01325755 0.00479273 0.00367416) // 447
    (0.01231313 0.00478515 0.00451399) // 448
    (0.01328629 0.00514061 0.00450454) // 449
    (0.01226991 0.00495574 0.00362543) // 450
    (0.01308023 0.00520886 0.00371857) // 451
    (0.01212728 0.00516260 0.00456310) // 452
    (0.01309489 0.00555848 0.00454978) // 453
    (0.01207957 0.00532858 0.00368193) // 454
    (0.01288747 0.00561739 0.00376140) // 455
    (0.01192792 0.00553195 0.00461068) // 456
    (0.01288795 0.00596854 0.00459366) // 457
    (0.01187601 0.00569279 0.00373609) // 458
    (0.01267962 0.00601769 0.00380265) // 459
    (0.01171540 0.00589268 0.00465672) // 460
    (0.01266581 0.00637015 0.00463620) // 461
    (0.01165964 0.00604783 0.00378792) // 462
    (0.01245703 0.00640915 0.00384232) // 463
    (0.01149011 0.00624426 0.00470123) // 464
    (0.01242883 0.00676268 0.00467739) // 465
    (0.01143088 0.00639323 0.00383742) // 466
    (0.01222011 0.00679115 0.00388040) // 467
    (0.01125247 0.00658619 0.00474420) // 468
    (0.01217739 0.00714552 0.00471723) // 469
    (0.01119018 0.00672849 0.00388459) // 470
    (0.01196928 0.00716312 0.00391691) // 471
    (0.01100288 0.00691798 0.00478563) // 472
    (0.01191190 0.00751807 0.00475573) // 473
    (0.01093800 0.00705316 0.00392943) // 474
    (0.01170499 0.00752448 0.00395184) // 475
    (0.01074180 0.00723917 0.00482554) // 476
    (0.01163281 0.00787975 0.00479287) // 477
    (0.01067482 0.00736681 0.00397193) // 478
    (0.01142769 0.00787469 0.00398518) // 479
    (0.01046969 0.00754930 0.00486391) // 480
    (0.01134058 0.00822999 0.00482866) // 481
    (0.01040114 0.00766902 0.00401210) // 482
    (0.01113790 0.00821322 0.00401695) // 483
    (0.01018703 0.00784795 0.00490074) // 484
    (0.01103569 0.00856825 0.00486310) // 485
    (0.01011746 0.00795939 0.00404994) // 486
    (0.01083612 0.00853956 0.00404713) // 487
    (0.00989432 0.00813471 0.00493604) // 488
    (0.01071867 0.00889401 0.00489619) // 489
    (0.00982432 0.00823757 0.00408545) // 490
    (0.01052288 0.00885324 0.00407574) // 491
    (0.00959209 0.00840919 0.00496981) // 492
    (0.01039005 0.00920677 0.00492794) // 493
    (0.00952225 0.00850319 0.00411862) // 494
    (0.01019875 0.00915379 0.00410276) // 495
    (0.00928085 0.00867104 0.00500204) // 496
    (0.01005038 0.00950605 0.00495833) // 497
    (0.00921181 0.00875594 0.00414946) // 498
    (0.00986430 0.00944078 0.00412820) // 499
    (0.00896116 0.00891991 0.00503273) // 500
    (0.00970024 0.00979139 0.00498737) // 501
    (0.00889356 0.00899553 0.00417797) // 502
    (0.00952013 0.00971380 0.00415206) // 503
    (0.00863357 0.00915549 0.00506190) // 504
    (0.00934024 0.01006238 0.00501507) // 505
    (0.00856809 0.00922167 0.00420414) // 506
    (0.00916684 0.00997247 0.00417434) // 507
    (0.00829866 0.00937748 0.00508952) // 508
    (0.00897099 0.01031860 0.00504141) // 509
    (0.00823596 0.00943411 0.00422799) // 510
    (0.00880506 0.01021643 0.00419504) // 511
    (0.00795701 0.00958562 0.00511562) // 512
    (0.00859313 0.01055968 0.00506640) // 513
    (0.00789779 0.00963264 0.00424950) // 514
    (0.00843544 0.01044535 0.00421416) // 515
    (0.00760922 0.00977965 0.00514018) // 516
    (0.00820730 0.01078528 0.00509005) // 517
    (0.00755416 0.00981706 0.00426868) // 518
    (0.00805864 0.01065894 0.00423170) // 519
    (0.00725588 0.00995937 0.00516320) // 520
    (0.00781419 0.01099506 0.00511235) // 521
    (0.00720570 0.00998719 0.00428552) // 522
    (0.00767531 0.01085691 0.00424766) // 523
    (0.00689762 0.01012458 0.00518469) // 524
    (0.00741447 0.01118874 0.00513329) // 525
    (0.00685300 0.01014288 0.00430004) // 526
    (0.00728614 0.01103903 0.00426204) // 527
    (0.00653505 0.01027512 0.00520465) // 528
    (0.00700883 0.01136605 0.00515289) // 529
    (0.00649669 0.01028403 0.00431222) // 530
    (0.00689182 0.01120507 0.00427484) // 531
    (0.00616879 0.01041084 0.00522307) // 532
    (0.00659799 0.01152677 0.00517113) // 533
    (0.00613740 0.01041052 0.00432206) // 534
    (0.00649305 0.01135487 0.00428605) // 535
    (0.00579949 0.01053163 0.00523996) // 536
    (0.00618267 0.01167069 0.00518803) // 537
    (0.00577573 0.01052230 0.00432958) // 538
    (0.00609054 0.01148826 0.00429569) // 539
    (0.00542776 0.01063740 0.00525531) // 540
    (0.00576359 0.01179764 0.00520358) // 541
    (0.00541232 0.01061931 0.00433476) // 542
    (0.00568499 0.01160513 0.00430374) // 543
    (0.00505426 0.01072811 0.00526913) // 544
    (0.00534150 0.01190749 0.00521778) // 545
    (0.00504779 0.01070156 0.00433761) // 546
    (0.00527712 0.01170537 0.00431022) // 547
    (0.00467962 0.01080370 0.00528141) // 548
    (0.00491713 0.01200013 0.00523062) // 549
    (0.00468276 0.01076904 0.00433813) // 550
    (0.00486767 0.01178894 0.00431511) // 551
    (0.00430448 0.01086419 0.00529216) // 552
    (0.00449123 0.01207549 0.00524212) // 553
    (0.00431785 0.01082179 0.00433632) // 554
    (0.00445734 0.01185580 0.00431842) // 555
    (0.00392949 0.01090959 0.00530138) // 556
    (0.00406456 0.01213353 0.00525227) // 557
    (0.00395369 0.01085987 0.00433217) // 558
    (0.00404686 0.01190595 0.00432015) // 559
    (0.00355528 0.01093994 0.00530906) // 560
    (0.00363787 0.01217424 0.00526107) // 561
    (0.00359088 0.01088338 0.00432569) // 562
    (0.00363696 0.01193944 0.00432031) // 563
    (0.00318250 0.01095534 0.00531521) // 564
    (0.00321192 0.01219766 0.00526852) // 565
    (0.00323003 0.01089242 0.00431688) // 566
    (0.00322836 0.01195632 0.00431888) // 567
    (0.00281176 0.01095588 0.00531982) // 568
    (0.00278746 0.01220383 0.00527462) // 569
    (0.00287174 0.01088713 0.00430574) // 570
    (0.00282178 0.01195670 0.00431587) // 571
    (0.00244370 0.01094169 0.00532290) // 572
    (0.00236525 0.01219287 0.00527937) // 573
    (0.00251661 0.01086767 0.00429226) // 574
    (0.00241793 0.01194070 0.00431128) // 575
    (0.00207895 0.01091294 0.00532444) // 576
    (0.00194603 0.01216489 0.00528277) // 577
    (0.00216523 0.01083424 0.00427645) // 578
    (0.00201752 0.01190848 0.00430510) // 579
    (0.00171811 0.01086980 0.00532445) // 580
    (0.00153056 0.01212006 0.00528482) // 581
    (0.00181816 0.01078704 0.00425831) // 582
    (0.00162125 0.01186024 0.00429735) // 583
    (0.00136179 0.01081248 0.00532293) // 584
    (0.00111956 0.01205858 0.00528552) // 585
    (0.00147598 0.01072630 0.00423783) // 586
    (0.00122981 0.01179620 0.00428802) // 587
    (0.00101059 0.01074123 0.00531987) // 588
    (0.00071378 0.01198068 0.00528488) // 589
    (0.00113925 0.01065228 0.00421503) // 590
    (0.00084389 0.01171661 0.00427711) // 591
    (0.00066509 0.01065630 0.00531527) // 592
    (0.00031393 0.01188662 0.00528288) // 593
    (0.00080850 0.01056527 0.00418989) // 594
    (0.00046416 0.01162175 0.00426461) // 595
    (0.00032587 0.01055799 0.00530914) // 596
    (-0.00007928 0.01177669 0.00527953) // 597
    (0.00048427 0.01046557 0.00416242) // 598
    (0.00009128 0.01151194 0.00425054) // 599
    (-0.00000650 0.01044659 0.00530148) // 600
    (-0.00046515 0.01165123 0.00527483) // 601
    (0.00016707 0.01035349 0.00413261) // 602
    (-0.00027412 0.01138752 0.00423488) // 603
    (-0.00033149 0.01032246 0.00529228) // 604
    (-0.00084300 0.01151059 0.00526879) // 605
    (-0.00014259 0.01022938 0.00410048) // 606
    (-0.00063139 0.01124886 0.00421764) // 607
    (-0.00064856 0.01018594 0.00528155) // 608
    (-0.00121216 0.01135517 0.00526139) // 609
    (-0.00044423 0.01009361 0.00406601) // 610
    (-0.00097992 0.01109635 0.00419883) // 611
    (-0.00095720 0.01003744 0.00526929) // 612
    (-0.00157199 0.01118541 0.00525265) // 613