/*--------------------------------*- C++ -*----------------------------------*\
| =========                 |                                                 |
| \\      /  F ield         | OpenFOAM: The Open Source CFD Toolbox           |
|  \\    /   O peration     | Version:  v1806                                 |
|   \\  /    A nd           | Web:      www.OpenFOAM.com                      |
|    \\/     M anipulation  |                                                 |
\*---------------------------------------------------------------------------*/
FoamFile
{
    version     2.0;
    format      ascii;
    class       dictionary;
    object      blockMeshDict;
}
// * * * * * * * * * * * * * * * * * * * * * * * * * * * * * * * * * * * * * //

scale   1;

// the updated blockMesh (openfoam.com) fails on some meshes with default options;
// it reports report inconsistent number of faces although the mesh is still OK.
// this happens where two 'wedge' blocks with different numbers of cells join in the same
// point/edge.
mergeType points;
checkFaceCorrespondence false;



vertices
(
    
    (-0.01747578 -0.01246094 0.00001537) // 0
    (-0.01747596 -0.01346063 0.00005592) // 1
    (-0.01835294 -0.01346063 0.00004056) // 2
    (-0.01835294 -0.01246094 -0.00000000) // 3
    (-0.01747139 -0.01246094 -0.00096884) // 4
    (-0.01747258 -0.01321875 -0.00070334) // 5
    (-0.01835294 -0.01321875 -0.00071883) // 6
    (-0.01835294 -0.01246094 -0.00098438) // 7
    (-0.01659862 -0.01246094 0.00003074) // 8
    (-0.01659898 -0.01346063 0.00007128) // 9
    (-0.01658985 -0.01246094 -0.00095330) // 10
    (-0.01659221 -0.01321875 -0.00068785) // 11
    (-0.01572145 -0.01246094 0.00004611) // 12
    (-0.01572200 -0.01346063 0.00008664) // 13
    (-0.01570830 -0.01246094 -0.00093777) // 14
    (-0.01571185 -0.01321875 -0.00067236) // 15
    (-0.01484429 -0.01246094 0.00006148) // 16
    (-0.01484501 -0.01346063 0.00010200) // 17
    (-0.01482676 -0.01246094 -0.00092223) // 18
    (-0.01483149 -0.01321875 -0.00065687) // 19
    (-0.01396713 -0.01246094 0.00007684) // 20
    (-0.01396803 -0.01346063 0.00011737) // 21
    (-0.01394521 -0.01246094 -0.00090670) // 22
    (-0.01395112 -0.01321875 -0.00064138) // 23
    (-0.01308997 -0.01246094 0.00009221) // 24
    (-0.01309105 -0.01346063 0.00013273) // 25
    (-0.01306366 -0.01246094 -0.00089116) // 26
    (-0.01307076 -0.01321875 -0.00062589) // 27
    (-0.01221280 -0.01246094 0.00010758) // 28
    (-0.01221407 -0.01346063 0.00014809) // 29
    (-0.01218212 -0.01246094 -0.00087563) // 30
    (-0.01219039 -0.01321875 -0.00061040) // 31
    (-0.01133564 -0.01246094 0.00012295) // 32
    (-0.01133709 -0.01346063 0.00016345) // 33
    (-0.01130057 -0.01246094 -0.00086009) // 34
    (-0.01131003 -0.01321875 -0.00059491) // 35
    (-0.01045848 -0.01246094 0.00013832) // 36
    (-0.01046010 -0.01346063 0.00017881) // 37
    (-0.01041902 -0.01246094 -0.00084456) // 38
    (-0.01042967 -0.01321875 -0.00057942) // 39
    (-0.00958286 -0.01247939 0.00016117) // 40
    (-0.00958457 -0.01347849 0.00020151) // 41
    (-0.00953933 -0.01247949 -0.00081995) // 42
    (-0.00955089 -0.01323702 -0.00055625) // 43
    (-0.00870878 -0.01251630 0.00019151) // 44
    (-0.00871050 -0.01351423 0.00023153) // 45
    (-0.00866150 -0.01251660 -0.00078626) // 46
    (-0.00867370 -0.01327358 -0.00052538) // 47
    (-0.00783625 -0.01257167 0.00022934) // 48
    (-0.00783787 -0.01356783 0.00026888) // 49
    (-0.00778552 -0.01257226 -0.00074349) // 50
    (-0.00779809 -0.01332841 -0.00048683) // 51
    (-0.00696526 -0.01264549 0.00027465) // 52
    (-0.00696670 -0.01363929 0.00031356) // 53
    (-0.00691139 -0.01264647 -0.00069164) // 54
    (-0.00692406 -0.01340153 -0.00044060) // 55
    (-0.00609581 -0.01273777 0.00032745) // 56
    (-0.00609698 -0.01372862 0.00036557) // 57
    (-0.00603913 -0.01273924 -0.00063072) // 58
    (-0.00605163 -0.01349292 -0.00038668) // 59
    (-0.00522790 -0.01284850 0.00038773) // 60
    (-0.00522871 -0.01383582 0.00042491) // 61
    (-0.00516871 -0.01285057 -0.00056072) // 62
    (-0.00518078 -0.01360259 -0.00032507) // 63
    (-0.00436154 -0.01297769 0.00045550) // 64
    (-0.00436190 -0.01396089 0.00049158) // 65
    (-0.00430016 -0.01298044 -0.00048164) // 66
    (-0.00431151 -0.01373053 -0.00025578) // 67
    (-0.00349682 -0.01311573 0.00053108) // 68
    (-0.00349659 -0.01409799 0.00056577) // 69
    (-0.00343347 -0.01312063 -0.00039344) // 70
    (-0.00344386 -0.01387097 -0.00017870) // 71
    (-0.00264757 -0.01322481 0.00061279) // 72
    (-0.00261207 -0.01421625 0.00064873) // 73
    (-0.00257956 -0.01323117 -0.00029859) // 74
    (-0.00256304 -0.01398993 -0.00009357) // 75
    (-0.00179415 -0.01329832 0.00070256) // 76
    (-0.00172136 -0.01429756 0.00073938) // 77
    (-0.00172159 -0.01330556 -0.00019549) // 78
    (-0.00167633 -0.01407166 -0.00000075) // 79
    (-0.00093677 -0.01333551 0.00080050) // 80
    (-0.00082467 -0.01434097 0.00083783) // 81
    (-0.00085978 -0.01334311 -0.00008401) // 82
    (-0.00078397 -0.01411521 0.00009988) // 83
    (-0.00007565 -0.01333570 0.00090672) // 84
    (0.00007780 -0.01434550 0.00094424) // 85
    (0.00000567 -0.01334311 0.00003595) // 86
    (0.00011382 -0.01411966 0.00020845) // 87
    (0.00078899 -0.01329822 0.00102129) // 88
    (0.00098582 -0.01431024 0.00105872) // 89
    (0.00087453 -0.01330490 0.00016448) // 90
    (0.00101680 -0.01408411 0.00032508) // 91
    (0.00165695 -0.01322241 0.00114431) // 92
    (0.00189920 -0.01423426 0.00118141) // 93
    (0.00174658 -0.01322787 0.00030167) // 94
    (0.00192473 -0.01400770 0.00044989) // 95
    (0.00252799 -0.01310768 0.00127586) // 96
    (0.00281770 -0.01411668 0.00131242) // 97
    (0.00262160 -0.01311140 0.00044761) // 98
    (0.00283737 -0.01388961 0.00058297) // 99
    (0.00340191 -0.01295343 0.00141602) // 100
    (0.00374110 -0.01395665 0.00145186) // 101
    (0.00349936 -0.01295493 0.00060237) // 102
    (0.00375447 -0.01372902 0.00072444) // 103
    (0.00426703 -0.01273623 0.00155497) // 104
    (0.00465746 -0.01373089 0.00159006) // 105
    (0.00436830 -0.01273472 0.00075410) // 106
    (0.00466389 -0.01350227 0.00086419) // 107
    (0.00511858 -0.01245656 0.00169273) // 108
    (0.00556184 -0.01343955 0.00172703) // 109
    (0.00522352 -0.01245126 0.00090282) // 110
    (0.00556054 -0.01320963 0.00100222) // 111
    (0.00595179 -0.01211529 0.00182929) // 112
    (0.00644923 -0.01308318 0.00186276) // 113
    (0.00606014 -0.01210542 0.00104852) // 114
    (0.00643935 -0.01285178 0.00113853) // 115
    (0.00676193 -0.01171365 0.00196466) // 116
    (0.00731469 -0.01266270 0.00199725) // 117
    (0.00687333 -0.01169848 0.00119119) // 118
    (0.00729528 -0.01242979 0.00127312) // 119
    (0.00754439 -0.01125326 0.00209882) // 120
    (0.00815327 -0.01217941 0.00213051) // 121
    (0.00765836 -0.01123208 0.00133084) // 122
    (0.00812334 -0.01194515 0.00140599) // 123
    (0.00829463 -0.01073608 0.00223179) // 124
    (0.00896013 -0.01163503 0.00226253) // 125
    (0.00841060 -0.01070825 0.00146748) // 126
    (0.00891863 -0.01139973 0.00153713) // 127
    (0.00900830 -0.01016447 0.00236356) // 128
    (0.00973050 -0.01103165 0.00239331) // 129
    (0.00912558 -0.01012941 0.00160109) // 130
    (0.00967638 -0.01079583 0.00166656) // 131
    (0.00968117 -0.00954110 0.00249414) // 132
    (0.01045976 -0.01037175 0.00252286) // 133
    (0.00979902 -0.00949832 0.00173168) // 134
    (0.01039199 -0.01013612 0.00179427) // 135
    (0.01030927 -0.00886900 0.00262351) // 136
    (0.01114346 -0.00965820 0.00265117) // 137
    (0.01042684 -0.00881809 0.00185925) // 138
    (0.01106103 -0.00942363 0.00192025) // 139
    (0.01088880 -0.00815152 0.00275169) // 140
    (0.01177734 -0.00889421 0.00277824) // 141
    (0.01100519 -0.00809217 0.00198380) // 142
    (0.01167931 -0.00866179 0.00204452) // 143
    (0.01141626 -0.00739229 0.00287868) // 144
    (0.01235736 -0.00808337 0.00290408) // 145
    (0.01153051 -0.00732433 0.00210533) // 146
    (0.01224290 -0.00785436 0.00216706) // 147
    (0.01188840 -0.00659526 0.00300446) // 148
    (0.01287976 -0.00722958 0.00302868) // 149
    (0.01199950 -0.00651861 0.00222384) // 150
    (0.01274812 -0.00700544 0.00228788) // 151
    (0.01230228 -0.00576463 0.00312905) // 152
    (0.01334106 -0.00633710 0.00315204) // 153
    (0.01240921 -0.00567935 0.00233933) // 154
    (0.01319163 -0.00611943 0.00240699) // 155
    (0.01265531 -0.00490485 0.00325244) // 156
    (0.01373807 -0.00541045 0.00327417) // 157
    (0.01275702 -0.00481111 0.00245179) // 158
    (0.01357044 -0.00520103 0.00252437) // 159
    (0.01294521 -0.00402055 0.00337463) // 160
    (0.01406798 -0.00445446 0.00339506) // 161
    (0.01304067 -0.00391869 0.00256124) // 162
    (0.01388190 -0.00425519 0.00264003) // 163
    (0.01317010 -0.00311661 0.00349563) // 164
    (0.01432832 -0.00347417 0.00351471) // 165
    (0.01325828 -0.00300706 0.00266767) // 166
    (0.01412377 -0.00328710 0.00275397) // 167
    (0.01332845 -0.00219801 0.00361543) // 168
    (0.01451704 -0.00247489 0.00363313) // 169
    (0.01340838 -0.00208136 0.00277107) // 170
    (0.01429420 -0.00230213 0.00286619) // 171
    (0.01341915 -0.00126989 0.00373403) // 172
    (0.01463247 -0.00146210 0.00375031) // 173
    (0.01348990 -0.00114686 0.00287145) // 174
    (0.01439179 -0.00130585 0.00297669) // 175
    (0.01344150 -0.00033749 0.00385143) // 176
    (0.01467340 -0.00044143 0.00386625) // 177
    (0.01350220 -0.00020891 0.00296882) // 178
    (0.01441559 -0.00030394 0.00308547) // 179
    (0.01339519 0.00059389 0.00396764) // 180
    (0.01463905 0.00058135 0.00398096) // 181
    (0.01344508 0.00072707 0.00306316) // 182
    (0.01436508 0.00069782 0.00319253) // 183
    (0.01328038 0.00151893 0.00408265) // 184
    (0.01452910 0.00160037 0.00409443) // 185
    (0.01331877 0.00165564 0.00315448) // 186
    (0.01424024 0.00169357 0.00329786) // 187
    (0.01309761 0.00243231 0.00419646) // 188
    (0.01434373 0.00260973 0.00420666) // 189
    (0.01312394 0.00257138 0.00324278) // 190
    (0.01404152 0.00267747 0.00340148) // 191
    (0.01284788 0.00332873 0.00430907) // 192
    (0.01408357 0.00360350 0.00431766) // 193
    (0.01286172 0.00346893 0.00332806) // 194
    (0.01376985 0.00364366 0.00350338) // 195
    (0.01253262 0.00420299 0.00442049) // 196
    (0.01374975 0.00457578 0.00442742) // 197
    (0.01253367 0.00434299 0.00341032) // 198
    (0.01342665 0.00458636 0.00360355) // 199
    (0.01215303 0.00504920 0.00452961) // 200
    (0.01334315 0.00551983 0.00453492) // 201
    (0.01214131 0.00518747 0.00348909) // 202
    (0.01301331 0.00549903 0.00370117) // 203
    (0.01170950 0.00585932 0.00463255) // 204
    (0.01286372 0.00642637 0.00463658) // 205
    (0.01168581 0.00599392 0.00356276) // 206
    (0.01253083 0.00637283 0.00379329) // 207
    (0.01120534 0.00662783 0.00472896) // 208
    (0.01231480 0.00728894 0.00473207) // 209
    (0.01117082 0.00675692 0.00363118) // 210
    (0.01198279 0.00720177 0.00387965) // 211
    (0.01064453 0.00734979 0.00481884) // 212
    (0.01170053 0.00810171 0.00482139) // 213
    (0.01060055 0.00747173 0.00369434) // 214
    (0.01137347 0.00798050 0.00396026) // 215
    (0.01003147 0.00802060 0.00490220) // 216
    (0.01102559 0.00885921 0.00490455) // 217
    (0.00997963 0.00813402 0.00375225) // 218
    (0.01070758 0.00870406 0.00403510) // 219
    (0.00937096 0.00863611 0.00497904) // 220
    (0.01029510 0.00955643 0.00498154) // 221
    (0.00931303 0.00873988 0.00380491) // 222
    (0.00999026 0.00936792 0.00410418) // 223
    (0.00866814 0.00919261 0.00504935) // 224
    (0.00951466 0.01018882 0.00505237) // 225
    (0.00860603 0.00928590 0.00385232) // 226
    (0.00922705 0.00996805 0.00416751) // 227
    (0.00792846 0.00968685 0.00511314) // 228
    (0.00869026 0.01075237 0.00511703) // 229
    (0.00786417 0.00976913 0.00389447) // 230
    (0.00842381 0.01050093 0.00422507) // 231
    (0.00715764 0.01011611 0.00517041) // 232
    (0.00782822 0.01124361 0.00517552) // 233
    (0.00709323 0.01018716 0.00393137) // 234
    (0.00758669 0.01096358 0.00427688) // 235
    (0.00636160 0.01047818 0.00522115) // 236
    (0.00693519 0.01165968 0.00522785) // 237
    (0.00629915 0.01053810 0.00396302) // 238
    (0.00672209 0.01135358 0.00432293) // 239
    (0.00554645 0.01077140 0.00526537) // 240
    (0.00601803 0.01199831 0.00527402) // 241
    (0.00548800 0.01082060 0.00398942) // 242
    (0.00583659 0.01166912 0.00436322) // 243
    (0.00471842 0.01099467 0.00530306) // 244
    (0.00508383 0.01225790 0.00531402) // 245
    (0.00466592 0.01103388 0.00401057) // 246
    (0.00493690 0.01190897 0.00439775) // 247
    (0.00388380 0.01114746 0.00533422) // 248
    (0.00413976 0.01243748 0.00534785) // 249
    (0.00383908 0.01117769 0.00402646) // 250
    (0.00402984 0.01207253 0.00442652) // 251
    (0.00304890 0.01122980 0.00535887) // 252
    (0.00319311 0.01253677 0.00537552) // 253
    (0.00301365 0.01125234 0.00403711) // 254
    (0.00312222 0.01215981 0.00444954) // 255
    (0.00222002 0.01124233 0.00537699) // 256
    (0.00225113 0.01255616 0.00539702) // 257
    (0.00219569 0.01125871 0.00404250) // 258
    (0.00222083 0.01217145 0.00446679) // 259
    (0.00140334 0.01118622 0.00538858) // 260
    (0.00132103 0.01249670 0.00541236) // 261
    (0.00139118 0.01119820 0.00404264) // 262
    (0.00133237 0.01210872 0.00447829) // 263
    (0.00060492 0.01106322 0.00539365) // 264
    (0.00040991 0.01236013 0.00542153) // 265
    (0.00060590 0.01107273 0.00403752) // 266
    (0.00046340 0.01197347 0.00448402) // 267
    (-0.00016936 0.01087563 0.00539220) // 268
    (-0.00047533 0.01214886 0.00542453) // 269
    (-0.00015457 0.01088476 0.00402716) // 270
    (-0.00037973 0.01176816 0.00448400) // 271
    (-0.00091386 0.01062628 0.00538422) // 272
    (-0.00132803 0.01186592 0.00542137) // 273
    (-0.00088490 0.01063721 0.00401154) // 274
    (-0.00119092 0.01149585 0.00447822) // 275
    (-0.00162325 0.01031852 0.00536972) // 276
    (-0.00214184 0.01151497 0.00541205) // 277
    (-0.00158006 0.01033347 0.00399067) // 278
    (-0.00196438 0.01116010 0.00446668) // 279
    (-0.00229251 0.00995615 0.00534869) // 280
    (-0.00291077 0.01110026 0.00539656) // 281
    (-0.00223538 0.00997737 0.00396455) // 282
    (-0.00269468 0.01076503 0.00444938) // 283
    (-0.00291699 0.00954348 0.00532117) // 284
    (-0.00362926 0.01062666 0.00537493) // 285
    (-0.00284656 0.00957317 0.00393320) // 286
    (-0.00337680 0.01031529 0.00442636) // 287
    (-0.00349170 0.00909368 0.00529418) // 288
    (-0.00428999 0.01010899 0.00535388) // 289
    (-0.00341220 0.00913269 0.00390309) // 290
    (-0.00400634 0.00982430 0.00440419) // 291
    (-0.00401479 0.00861830 0.00527305) // 292
    (-0.00488973 0.00956063 0.00533851) // 293
    (-0.00393259 0.00866569 0.00387913) // 294
    (-0.00458180 0.00930375 0.00438789) // 295
    (-0.00448646 0.00812238 0.00525779) // 296
    (-0.00542869 0.00898773 0.00532882) // 297
    (-0.00440723 0.00817617 0.00386133) // 298
    (-0.00510300 0.00875877 0.00437746) // 299
    (-0.00490732 0.00761065 0.00524840) // 300
    (-0.00590757 0.00839612 0.00532482) // 301
    (-0.00483589 0.00766801 0.00384967) // 302
    (-0.00557016 0.00819428 0.00437291) // 303
    (-0.00527831 0.00708756 0.00524488) // 304
    (-0.00632754 0.00779124 0.00532649) // 305
    (-0.00521866 0.00714497 0.00384417) // 306
    (-0.00598386 0.00761495 0.00437423) // 307
    (-0.00560068 0.00655726 0.00524722) // 308
    (-0.00669015 0.00717818 0.00533385) // 309
    (-0.00555589 0.00661064 0.00384482) // 310
    (-0.00634504 0.00702519 0.00438143) // 311
    (-0.00587594 0.00602360 0.00525543) // 312
    (-0.00699729 0.00656163 0.00534689) // 313
    (-0.00584813 0.00606847 0.00385162) // 314
    (-0.00665491 0.00642914 0.00439449) // 315
    (-0.00610581 0.00549011 0.00526951) // 316
    (-0.00725111 0.00594591 0.00536561) // 317
    (-0.00609617 0.00552175 0.00386457) // 318
    (-0.00691494 0.00583068 0.00441343) // 319
    (-0.00629221 0.00496001 0.00528946) // 320
    (-0.00745401 0.00533491 0.00539001) // 321
    (-0.00630100 0.00497358 0.00388367) // 322
    (-0.00712682 0.00523339 0.00443824) // 323
    (-0.00643716 0.00443622 0.00531527) // 324
    (-0.00760858 0.00473216 0.00542009) // 325
    (-0.00646377 0.00442690 0.00390893) // 326
    (-0.00729242 0.00464055 0.00446893) // 327
    (-0.00654284 0.00392135 0.00534695) // 328
    (-0.00771752 0.00414081 0.00545586) // 329
    (-0.00658577 0.00388447 0.00394033) // 330
    (-0.00741377 0.00405519 0.00450548) // 331
    (-0.00661149 0.00341775 0.00538450) // 332
    (-0.00778366 0.00356361 0.00549730) // 333
    (-0.00666845 0.00334888 0.00397789) // 334
    (-0.00749303 0.00348004 0.00454791) // 335
    (-0.00664541 0.00292747 0.00542792) // 336
    (-0.00780990 0.00300298 0.00554443) // 337
    (-0.00671336 0.00282253 0.00402160) // 338
    (-0.00753243 0.00291755 0.00459621) // 339
    (-0.00664693 0.00245231 0.00547721) // 340
    (-0.00779915 0.00246100 0.00559724) // 341
    (-0.00672219 0.00230764 0.00407146) // 342
    (-0.00753432 0.00236992 0.00465039) // 343
    (-0.00661840 0.00199380 0.00553236) // 344
    (-0.00775435 0.00193941 0.00565573) // 345
    (-0.00669666 0.00180625 0.00412747) // 346
    (-0.00750105 0.00183908 0.00471044) // 347
    (-0.00656216 0.00155325 0.00559338) // 348
    (-0.00767841 0.00143965 0.00571991) // 349
    (-0.00663862 0.00132024 0.00418964) // 350
    (-0.00743502 0.00132672 0.00477636) // 351
    (-0.00648053 0.00113175 0.00566026) // 352
    (-0.00757419 0.00096287 0.00578976) // 353
    (-0.00654996 0.00085130 0.00425796) // 354
    (-0.00733865 0.00083427 0.00484815) // 355
    (-0.00637580 0.00073016 0.00573302) // 356
    (-0.00744451 0.00050997 0.00586530) // 357
    (-0.00643260 0.00040096 0.00433242) // 358
    (-0.00721434 0.00036297 0.00492581) // 359
    (-0.00625019 0.00034916 0.00581164) // 360
    (-0.00729210 0.00008159 0.00594652) // 361
    (-0.00628852 -0.00002942 0.00441304) // 362
    (-0.00706446 -0.00008619 0.00500935) // 363
    (-0.00610589 -0.00001075 0.00589613) // 364
    (-0.00711959 -0.00032187 0.00603342) // 365
    (-0.00611973 -0.00043865 0.00449981) // 366
    (-0.00689134 -0.00051239 0.00509876) // 367
    (-0.00594500 -0.00034927 0.00598649) // 368
    (-0.00692952 -0.00070020 0.00612600) // 369
    (-0.00592825 -0.00082571 0.00459274) // 370
    (-0.00669730 -0.00091503 0.00519404) // 371
    (-0.00577011 -0.00066759 0.00608320) // 372
    (-0.00672498 -0.00105509 0.00622473) // 373
    (-0.00571671 -0.00119013 0.00469248) // 374
    (-0.00648510 -0.00129470 0.00529568) // 375
    (-0.00558601 -0.00097395 0.00618920) // 376
    (-0.00651151 -0.00139695 0.00633240) // 377
    (-0.00549084 -0.00153404 0.00480304) // 378
    (-0.00625984 -0.00165750 0.00540658) // 379
    (-0.00539376 -0.00126972 0.00630498) // 380
    (-0.00629017 -0.00172771 0.00644948) // 381
    (-0.00525298 -0.00185804 0.00492509) // 382
    (-0.00602307 -0.00200460 0.00552720) // 383
    (-0.00519369 -0.00155495 0.00643054) // 384
    (-0.00606116 -0.00204762 0.00657597) // 385
    (-0.00500471 -0.00216248 0.00505864) // 386
    (-0.00577564 -0.00233622 0.00565757) // 387
    (-0.00498607 -0.00182976 0.00656588) // 388
    (-0.00582458 -0.00235697 0.00671186) // 389
    (-0.00474737 -0.00244784 0.00520367) // 390
    (-0.00551824 -0.00265264 0.00579767) // 391
    (-0.00477105 -0.00209428 0.00671099) // 392
    (-0.00558045 -0.00265606 0.00685716) // 393
    (-0.00448214 -0.00271469 0.00536019) // 394
    (-0.00525144 -0.00295419 0.00594750) // 395
    (-0.00454871 -0.00234866 0.00686589) // 396
    (-0.00532863 -0.00294520 0.00701187) // 397
    (-0.00421001 -0.00296366 0.00552820) // 398
    (-0.00497567 -0.00324121 0.00610707) // 399
    (-0.00431901 -0.00259305 0.00703055) // 400
    (-0.00506892 -0.00322465 0.00717598) // 401
    (-0.00393180 -0.00319542 0.00570771) // 402
    (-0.00469121 -0.00351404 0.00627638) // 403
    (-0.00408183 -0.00282755 0.00720500) // 404
    (-0.00480098 -0.00349463 0.00734951) // 405
    (-0.00364811 -0.00341064 0.00589870) // 406
    (-0.00439824 -0.00377300 0.00645543) // 407
    (-0.00383695 -0.00305226 0.00738923) // 408
    (-0.00452436 -0.00375532 0.00753244) // 409
    (-0.00335942 -0.00360999 0.00610118) // 410
    (-0.00409678 -0.00401835 0.00664421) // 411
    (-0.00358408 -0.00326717 0.00758323) // 412
    (-0.00423851 -0.00400677 0.00772478) // 413
    (-0.00306602 -0.00379408 0.00631515) // 414
    (-0.00378677 -0.00425029 0.00684272) // 415
    (-0.00332282 -0.00347222 0.00778701) // 416
    (-0.00394279 -0.00424895 0.00792652) // 417
    (-0.00276806 -0.00396345 0.00654061) // 418
    (-0.00346801 -0.00446893 0.00705098) // 419
    (-0.00305272 -0.00366724 0.00800057) // 420
    (-0.00363645 -0.00448170 0.00813768) // 421
    (-0.00246557 -0.00411855 0.00677755) // 422
    (-0.00314022 -0.00467426 0.00726896) // 423
    (-0.00277327 -0.00385192 0.00822391) // 424
    (-0.00331868 -0.00470468 0.00835824) // 425
    (-0.00215847 -0.00425975 0.00702599) // 426
    (-0.00280304 -0.00486616 0.00749669) // 427
    (-0.00248390 -0.00402584 0.00845702) // 428
    (-0.00298861 -0.00491739 0.00858821) // 429
    (-0.00184655 -0.00438727 0.00728592) // 430
    (-0.00245605 -0.00504434 0.00773415) // 431
    (-0.00218403 -0.00418838 0.00869992) // 432
    (-0.00264533 -0.00511913 0.00882758) // 433
    (-0.00152957 -0.00450120 0.00755734) // 434
    (-0.00209878 -0.00520836 0.00798135) // 435
    (-0.00187306 -0.00433879 0.00895259) // 436
    (-0.00228792 -0.00530898 0.00907637) // 437
    (-0.00120721 -0.00460147 0.00784025) // 438
    (-0.00173076 -0.00535761 0.00823828) // 439
    (-0.00155041 -0.00447609 0.00921503) // 440
    (-0.00191546 -0.00548579 0.00933456) // 441
    (-0.00087913 -0.00468788 0.00813464) // 442
    (-0.00135152 -0.00549126 0.00850495) // 443
    (-0.00121557 -0.00459911 0.00948726) // 444
    (-0.00152709 -0.00564815 0.00960216) // 445
    (-0.00054498 -0.00476000 0.00844053) // 446
    (-0.00096061 -0.00560832 0.00878135) // 447
    (-0.00086809 -0.00470644 0.00976926) // 448
    (-0.00112205 -0.00579437 0.00987916) // 449
    (-0.00020445 -0.00481728 0.00875791) // 450
    (-0.00055768 -0.00570756 0.00906749) // 451
    (-0.00050765 -0.00479648 0.01006105) // 452
    (-0.00069967 -0.00592252 0.01016557) // 453
    (0.00014271 -0.00485894 0.00908677) // 454
    (-0.00014247 -0.00578755 0.00936337) // 455
    (-0.00013409 -0.00486737 0.01036260) // 456
    (-0.00025948 -0.00603036 0.01046140) // 457
    (0.00049668 -0.00488404 0.00942713) // 458
    (0.00028514 -0.00584665 0.00966898) // 459
    (0.00024897 -0.00491262 0.01066602) // 460
    (0.00019529 -0.00610936 0.01075899) // 461
    (0.00085548 -0.00488701 0.00976911) // 462
    (0.00072200 -0.00587769 0.00997626) // 463
    (0.00063503 -0.00492567 0.01096089) // 464
    (0.00065800 -0.00615019 0.01104835) // 465
    (0.00121498 -0.00486157 0.01009975) // 466
    (0.00116203 -0.00587283 0.01027460) // 467
    (0.00102125 -0.00490672 0.01124717) // 468
    (0.00112522 -0.00615238 0.01132941) // 469
    (0.00157281 -0.00480791 0.01041901) // 470
    (0.00160206 -0.00583207 0.01056395) // 471
    (0.00140494 -0.00485624 0.01152485) // 472
    (0.00159352 -0.00611583 0.01160219) // 473
    (0.00192667 -0.00472644 0.01072687) // 474
    (0.00203898 -0.00575573 0.01084432) // 475
    (0.00178351 -0.00477491 0.01179393) // 476
    (0.00205955 -0.00604070 0.01186667) // 477
    (0.00227437 -0.00461772 0.01102334) // 478
    (0.00246980 -0.00564439 0.01111570) // 479
    (0.00215450 -0.00466358 0.01205442) // 480
    (0.00252000 -0.00592745 0.01212287) // 481
    (0.00261377 -0.00448250 0.01130842) // 482
    (0.00289161 -0.00549887 0.01137810) // 483
    (0.00251559 -0.00452330 0.01230632) // 484
    (0.00297166 -0.00577682 0.01237078) // 485
    (0.00294287 -0.00432166 0.01158211) // 486
    (0.00330162 -0.00532022 0.01163150) // 487
    (0.00286458 -0.00435525 0.01254963) // 488
    (0.00341142 -0.00558980 0.01261039) // 489
    (0.00325974 -0.00413623 0.01184441) // 490
    (0.00369717 -0.00510972 0.01187593) // 491
    (0.00319943 -0.00416075 0.01278434) // 492
    (0.00383628 -0.00536763 0.01284172) // 493
    (0.00356258 -0.00392737 0.01209532) // 494
    (0.00407576 -0.00486883 0.01211136) // 495
    (0.00351824 -0.00394126 0.01301045) // 496
    (0.00424338 -0.00511178 0.01306476) // 497
    (0.00384970 -0.00369634 0.01233483) // 498
    (0.00443504 -0.00459920 0.01233781) // 499
    (0.00381925 -0.00369832 0.01322797) // 500
    (0.00463002 -0.00482395 0.01327951) // 501
    (0.00411953 -0.00344453 0.01256295) // 502
    (0.00477281 -0.00430268 0.01255527) // 503
    (0.00410086 -0.00343361 0.01343690) // 504
    (0.00499368 -0.00450605 0.01348596) // 505
    (0.00437062 -0.00317342 0.01277969) // 506
    (0.00508709 -0.00398122 0.01276375) // 507
    (0.00436160 -0.00314887 0.01363723) // 508
    (0.00533198 -0.00416018 0.01368413) // 509
    (0.00460164 -0.00288456 0.01298503) // 510
    (0.00537606 -0.00363696 0.01296324) // 511
    (0.00460017 -0.00284594 0.01382897) // 512
    (0.00564277 -0.00378860 0.01387401) // 513
    (0.00481141 -0.00257961 0.01317897) // 514
    (0.00563809 -0.00327213 0.01315375) // 515
    (0.00481541 -0.00252670 0.01401211) // 516
    (0.00592411 -0.00339377 0.01405560) // 517
    (0.00499887 -0.00226028 0.01336153) // 518
    (0.00587176 -0.00288906 0.01333526) // 519
    (0.00500632 -0.00219313 0.01418666) // 520
    (0.00617424 -0.00297826 0.01422890) // 521
    (0.00516308 -0.00192835 0.01353269) // 522
    (0.00607585 -0.00249019 0.01350780) // 523
    (0.00517204 -0.00184722 0.01435261) // 524
    (0.00639167 -0.00254478 0.01439391) // 525
    (0.00530327 -0.00158564 0.01369247) // 526
    (0.00624936 -0.00207803 0.01367134) // 527
    (0.00531186 -0.00149102 0.01450997) // 528
    (0.00657511 -0.00209614 0.01455063) // 529
    (0.00541878 -0.00123404 0.01384085) // 530
    (0.00639148 -0.00165512 0.01382590) // 531
    (0.00542525 -0.00112663 0.01465874) // 532
    (0.00672352 -0.00163525 0.01469906) // 533
    (0.00550911 -0.00087545 0.01397784) // 534
    (0.00650164 -0.00122406 0.01397148) // 535
    (0.00551181 -0.00075615 0.01479891) // 536
    (0.00683612 -0.00116508 0.01483920) // 537
    (0.00557389 -0.00051180 0.01410344) // 538
    (0.00657944 -0.00078748 0.01410806) // 539
    (0.00557129 -0.00038169 0.01493049) // 540
    (0.00691238 -0.00068866 0.01497106) // 541
    (0.00561290 -0.00014505 0.01421765) // 542
    (0.00662473 -0.00034800 0.01423566) // 543
    (0.00560363 -0.00000519 0.01505349) // 544
    (0.00695213 -0.00020890 0.01509462) // 545
    (0.00562608 0.00022297 0.01432072) // 546
    (0.00663770 0.00009195 0.01435435) // 547
    (0.00560889 0.00037366 0.01516817) // 548
    (0.00695671 0.00027275 0.01520988) // 549
    (0.00561380 0.00059167 0.01441559) // 550
    (0.00662002 0.00053180 0.01446487) // 551
    (0.00558689 0.00075347 0.01527458) // 552
    (0.00692647 0.00075406 0.01531683) // 553
    (0.00557612 0.00095960 0.01450309) // 554
    (0.00657216 0.00096992 0.01456744) // 555
    (0.00553753 0.00113219 0.01537273) // 556
    (0.00686148 0.00123242 0.01541548) // 557
    (0.00551311 0.00132493 0.01458322) // 558
    (0.00649428 0.00140417 0.01466207) // 559
    (0.00546090 0.00150774 0.01546263) // 560
    (0.00676205 0.00170523 0.01550583) // 561
    (0.00542499 0.00168584 0.01465598) // 562
    (0.00638670 0.00183242 0.01474876) // 563
    (0.00535723 0.00187806 0.01554426) // 564
    (0.00662867 0.00216993 0.01558787) // 565
    (0.00531210 0.00204052 0.01472136) // 566
    (0.00624989 0.00225257 0.01482750) // 567
    (0.00522691 0.00224111 0.01561762) // 568
    (0.00646202 0.00262400 0.01566160) // 569
    (0.00517493 0.00238722 0.01477938) // 570
    (0.00608447 0.00266256 0.01489829) // 571
    (0.00507051 0.00259488 0.01568273) // 572
    (0.00626300 0.00306497 0.01572703) // 573
    (0.00501408 0.00272419 0.01483003) // 574
    (0.00589122 0.00306037 0.01496114) // 575
    (0.00488872 0.00293743 0.01573958) // 576
    (0.00603268 0.00349046 0.01578416) // 577
    (0.00483030 0.00304976 0.01487330) // 578
    (0.00567106 0.00344405 0.01501605) // 579
    (0.00468243 0.00326684 0.01578817) // 580
    (0.00577229 0.00389818 0.01583298) // 581
    (0.00462445 0.00336231 0.01490920) // 582
    (0.00542504 0.00381171 0.01506300) // 583
    (0.00445263 0.00358129 0.01582849) // 584
    (0.00548327 0.00428593 0.01587349) // 585
    (0.00439750 0.00366030 0.01493774) // 586
    (0.00515437 0.00416158 0.01510202) // 587
    (0.00420047 0.00387903 0.01586056) // 588
    (0.00516719 0.00465165 0.01590571) // 589
    (0.00415054 0.00394223 0.01495890) // 590
    (0.00486036 0.00449192 0.01513309) // 591
    (0.00392723 0.00415841 0.01588436) // 592
    (0.00482580 0.00499338 0.01592961) // 593
    (0.00388477 0.00420674 0.01497269) // 594
    (0.00454447 0.00480115 0.01515621) // 595
    (0.00363433 0.00441788 0.01589990) // 596
    (0.00446096 0.00530933 0.01594521) // 597
    (0.00360148 0.00445251 0.01497911) // 598
    (0.00420824 0.00508777 0.01517139) // 599
    (0.00332327 0.00465601 0.01590718) // 600
    (0.00407470 0.00559785 0.01595251) // 601
    (0.00330205 0.00467837 0.01497816) // 602
    (0.00385334 0.00535040 0.01517862) // 603
    (0.00299570 0.00487146 0.01590620) // 604
    (0.00366914 0.00585744 0.01595150) // 605
    (0.00298795 0.00488321 0.01496984) // 606
    (0.00348152 0.00558779 0.01517791) // 607
    (0.00265332 0.00506306 0.01589696) // 608
    (0.00324651 0.00608678 0.01594219) // 609
    (0.00266073 0.00506606 0.01495415) // 610
    (0.00309463 0.00579882 0.01516925) // 611
    (0.00229796 0.00522976 0.01587946) // 612
    (0.00280914 0.00628472 0.01592457) // 613
    (0.00232198 0.00522606 0.01493109) // 614