/*--------------------------------*- C++ -*----------------------------------*\
| =========                 |                                                 |
| \\      /  F ield         | OpenFOAM: The Open Source CFD Toolbox           |
|  \\    /   O peration     | Version:  v1806                                 |
|   \\  /    A nd           | Web:      www.OpenFOAM.com                      |
|    \\/     M anipulation  |                                                 |
\*---------------------------------------------------------------------------*/
FoamFile
{
    version     2.0;
    format      ascii;
    class       dictionary;
    object      blockMeshDict;
}
// * * * * * * * * * * * * * * * * * * * * * * * * * * * * * * * * * * * * * //

scale   1;

// the updated blockMesh (openfoam.com) fails on some meshes with default options;
// it reports report inconsistent number of faces although the mesh is still OK.
// this happens where two 'wedge' blocks with different numbers of cells join in the same
// point/edge.
mergeType points;
checkFaceCorrespondence false;



vertices
(
    
    (-0.01374931 -0.01250000 -0.00245000) // 0
    (-0.01374950 -0.01422520 -0.00175934) // 1
    (-0.01374960 -0.01388016 -0.00140247) // 2
    (-0.01374945 -0.01250000 -0.00195500) // 3
    (-0.01437459 -0.01250000 -0.00245000) // 4
    (-0.01437470 -0.01422520 -0.00175934) // 5
    (-0.01437476 -0.01388016 -0.00140247) // 6
    (-0.01437467 -0.01250000 -0.00195500) // 7
    (-0.01375002 -0.01499969 0.00008966) // 8
    (-0.01375001 -0.01449975 0.00007673) // 9
    (-0.01437501 -0.01499969 0.00008966) // 10
    (-0.01437501 -0.01449975 0.00007673) // 11
    (-0.01375050 -0.01428174 0.00180369) // 12
    (-0.01375040 -0.01392539 0.00144795) // 13
    (-0.01437530 -0.01428174 0.00180369) // 14
    (-0.01437524 -0.01392539 0.00144795) // 15
    (-0.01375070 -0.01242068 0.00254874) // 16
    (-0.01375056 -0.01243654 0.00204399) // 17
    (-0.01437542 -0.01242068 0.00254874) // 18
    (-0.01437534 -0.01243654 0.00204399) // 19
    (-0.01375050 -0.01071826 0.00180369) // 20
    (-0.01375040 -0.01107461 0.00144795) // 21
    (-0.01437530 -0.01071826 0.00180369) // 22
    (-0.01437524 -0.01107461 0.00144795) // 23
    (-0.01374997 -0.01000283 -0.00006895) // 24
    (-0.01374998 -0.01050227 -0.00005016) // 25
    (-0.01437498 -0.01000283 -0.00006895) // 26
    (-0.01437499 -0.01050227 -0.00005016) // 27
    (-0.01374950 -0.01077480 -0.00175934) // 28
    (-0.01374960 -0.01111984 -0.00140247) // 29
    (-0.01437470 -0.01077480 -0.00175934) // 30
    (-0.01437476 -0.01111984 -0.00140247) // 31
    (-0.01374976 -0.01332809 -0.00083148) // 32
    (-0.01374967 -0.01250000 -0.00116300) // 33
    (-0.01437486 -0.01332809 -0.00083148) // 34
    (-0.01437480 -0.01250000 -0.00116300) // 35
    (-0.01375001 -0.01369985 0.00005604) // 36
    (-0.01437501 -0.01369985 0.00005604) // 37
    (-0.01375024 -0.01335523 0.00087877) // 38
    (-0.01437514 -0.01335523 0.00087877) // 39
    (-0.01375034 -0.01246193 0.00123640) // 40
    (-0.01437520 -0.01246193 0.00123640) // 41
    (-0.01375024 -0.01164477 0.00087877) // 42
    (-0.01437514 -0.01164477 0.00087877) // 43
    (-0.01374999 -0.01130136 -0.00002010) // 44
    (-0.01437499 -0.01130136 -0.00002010) // 45
    (-0.01374976 -0.01167191 -0.00083148) // 46
    (-0.01437486 -0.01167191 -0.00083148) // 47
    (-0.01375000 -0.01250000 0.00002500) // 48
    (-0.01437500 -0.01250000 0.00002500) // 49
    (-0.01312385 -0.01250000 -0.00245000) // 50
    (-0.01312417 -0.01422520 -0.00175933) // 51
    (-0.01312433 -0.01388016 -0.00140247) // 52
    (-0.01312408 -0.01250000 -0.00195500) // 53
    (-0.01312503 -0.01499969 0.00008966) // 54
    (-0.01312502 -0.01449975 0.00007673) // 55
    (-0.01312583 -0.01428174 0.00180369) // 56
    (-0.01312566 -0.01392539 0.00144795) // 57
    (-0.01312618 -0.01242068 0.00254874) // 58
    (-0.01312594 -0.01243654 0.00204399) // 59
    (-0.01312583 -0.01071826 0.00180369) // 60
    (-0.01312566 -0.01107461 0.00144795) // 61
    (-0.01312496 -0.01000283 -0.00006895) // 62
    (-0.01312496 -0.01050227 -0.00005016) // 63
    (-0.01312417 -0.01077480 -0.00175933) // 64
    (-0.01312433 -0.01111984 -0.00140247) // 65
    (-0.01312460 -0.01332809 -0.00083148) // 66
    (-0.01312445 -0.01250000 -0.00116300) // 67
    (-0.01312501 -0.01369985 0.00005604) // 68
    (-0.01312540 -0.01335523 0.00087877) // 69
    (-0.01312556 -0.01246193 0.00123640) // 70
    (-0.01312540 -0.01164477 0.00087877) // 71
    (-0.01312498 -0.01130136 -0.00002010) // 72
    (-0.01312460 -0.01167191 -0.00083148) // 73
    (-0.01312500 -0.01250000 0.00002500) // 74
    (-0.01249807 -0.01250000 -0.00245000) // 75
    (-0.01249861 -0.01422520 -0.00175933) // 76
    (-0.01249889 -0.01388016 -0.00140247) // 77
    (-0.01249846 -0.01250000 -0.00195500) // 78
    (-0.01250005 -0.01499969 0.00008966) // 79
    (-0.01250004 -0.01449975 0.00007673) // 80
    (-0.01250138 -0.01428174 0.00180369) // 81
    (-0.01250111 -0.01392539 0.00144795) // 82
    (-0.01250196 -0.01242068 0.00254874) // 83
    (-0.01250157 -0.01243654 0.00204399) // 84
    (-0.01250138 -0.01071826 0.00180369) // 85
    (-0.01250111 -0.01107461 0.00144795) // 86
    (-0.01249993 -0.01000283 -0.00006895) // 87
    (-0.01249994 -0.01050227 -0.00005016) // 88
    (-0.01249861 -0.01077480 -0.00175933) // 89
    (-0.01249889 -0.01111984 -0.00140247) // 90
    (-0.01249933 -0.01332809 -0.00083148) // 91
    (-0.01249908 -0.01250000 -0.00116300) // 92
    (-0.01250002 -0.01369985 0.00005604) // 93
    (-0.01250066 -0.01335523 0.00087877) // 94
    (-0.01250094 -0.01246193 0.00123640) // 95
    (-0.01250066 -0.01164477 0.00087877) // 96
    (-0.01249996 -0.01130136 -0.00002010) // 97
    (-0.01249933 -0.01167191 -0.00083148) // 98
    (-0.01250000 -0.01250000 0.00002500) // 99
    (-0.01187178 -0.01250000 -0.00245000) // 100
    (-0.01187268 -0.01422520 -0.00175933) // 101
    (-0.01187314 -0.01388016 -0.00140247) // 102
    (-0.01187243 -0.01250000 -0.00195500) // 103
    (-0.01187508 -0.01499969 0.00008966) // 104
    (-0.01187507 -0.01449975 0.00007673) // 105
    (-0.01187731 -0.01428174 0.00180369) // 106
    (-0.01187685 -0.01392539 0.00144795) // 107
    (-0.01187828 -0.01242068 0.00254874) // 108
    (-0.01187762 -0.01243654 0.00204399) // 109
    (-0.01187731 -0.01071826 0.00180369) // 110
    (-0.01187685 -0.01107461 0.00144795) // 111
    (-0.01187488 -0.01000283 -0.00006895) // 112
    (-0.01187490 -0.01050227 -0.00005016) // 113
    (-0.01187268 -0.01077480 -0.00175933) // 114
    (-0.01187314 -0.01111984 -0.00140247) // 115
    (-0.01187389 -0.01332809 -0.00083148) // 116
    (-0.01187346 -0.01250000 -0.00116300) // 117
    (-0.01187504 -0.01369985 0.00005604) // 118
    (-0.01187611 -0.01335523 0.00087877) // 119
    (-0.01187657 -0.01246193 0.00123639) // 120
    (-0.01187611 -0.01164477 0.00087877) // 121
    (-0.01187494 -0.01130136 -0.00002010) // 122
    (-0.01187389 -0.01167191 -0.00083148) // 123
    (-0.01187500 -0.01250000 0.00002500) // 124
    (-0.01124463 -0.01250000 -0.00244999) // 125
    (-0.01124613 -0.01422520 -0.00175933) // 126
    (-0.01124690 -0.01388016 -0.00140246) // 127
    (-0.01124570 -0.01250000 -0.00195500) // 128
    (-0.01125014 -0.01499969 0.00008966) // 129
    (-0.01125011 -0.01449975 0.00007673) // 130
    (-0.01125386 -0.01428174 0.00180368) // 131
    (-0.01125309 -0.01392539 0.00144795) // 132
    (-0.01125548 -0.01242068 0.00254874) // 133
    (-0.01125438 -0.01243654 0.00204399) // 134
    (-0.01125386 -0.01071826 0.00180368) // 135
    (-0.01125309 -0.01107461 0.00144795) // 136
    (-0.01124980 -0.01000283 -0.00006895) // 137
    (-0.01124984 -0.01050227 -0.00005016) // 138
    (-0.01124613 -0.01077480 -0.00175933) // 139
    (-0.01124690 -0.01111984 -0.00140246) // 140
    (-0.01124814 -0.01332809 -0.00083148) // 141
    (-0.01124742 -0.01250000 -0.00116300) // 142
    (-0.01125007 -0.01369985 0.00005604) // 143
    (-0.01125185 -0.01335523 0.00087877) // 144
    (-0.01125263 -0.01246193 0.00123639) // 145
    (-0.01125185 -0.01164477 0.00087877) // 146
    (-0.01124990 -0.01130136 -0.00002010) // 147
    (-0.01124814 -0.01167191 -0.00083148) // 148
    (-0.01125000 -0.01250000 0.00002500) // 149
    (-0.01061602 -0.01250000 -0.00244998) // 150
    (-0.01061853 -0.01422520 -0.00175932) // 151
    (-0.01061982 -0.01388016 -0.00140246) // 152
    (-0.01061782 -0.01250000 -0.00195499) // 153
    (-0.01062523 -0.01499969 0.00008966) // 154
    (-0.01062519 -0.01449975 0.00007673) // 155
    (-0.01063145 -0.01428174 0.00180368) // 156
    (-0.01063016 -0.01392539 0.00144794) // 157
    (-0.01063415 -0.01242068 0.00254872) // 158
    (-0.01063232 -0.01243654 0.00204398) // 159
    (-0.01063145 -0.01071826 0.00180368) // 160
    (-0.01063016 -0.01107461 0.00144794) // 161
    (-0.01062466 -0.01000283 -0.00006895) // 162
    (-0.01062473 -0.01050227 -0.00005016) // 163
    (-0.01061853 -0.01077480 -0.00175932) // 164
    (-0.01061982 -0.01111984 -0.00140246) // 165
    (-0.01062189 -0.01332809 -0.00083148) // 166
    (-0.01062069 -0.01250000 -0.00116299) // 167
    (-0.01062511 -0.01369985 0.00005604) // 168
    (-0.01062810 -0.01335523 0.00087876) // 169
    (-0.01062939 -0.01246193 0.00123639) // 170
    (-0.01062810 -0.01164477 0.00087876) // 171
    (-0.01062484 -0.01130136 -0.00002010) // 172
    (-0.01062189 -0.01167191 -0.00083148) // 173
    (-0.01062500 -0.01250000 0.00002500) // 174
    (-0.00998501 -0.01250000 -0.00244995) // 175
    (-0.00998919 -0.01422520 -0.00175930) // 176
    (-0.00999135 -0.01388016 -0.00140244) // 177
    (-0.00998801 -0.01250000 -0.00195496) // 178
    (-0.01000039 -0.01499969 0.00008966) // 179
    (-0.01000031 -0.01449975 0.00007673) // 180
    (-0.01001077 -0.01428174 0.00180365) // 181
    (-0.01000862 -0.01392539 0.00144792) // 182
    (-0.01001529 -0.01242068 0.00254870) // 183
    (-0.01001223 -0.01243654 0.00204396) // 184
    (-0.01001077 -0.01071826 0.00180365) // 185
    (-0.01000862 -0.01107461 0.00144792) // 186
    (-0.00999943 -0.01000283 -0.00006895) // 187
    (-0.00999954 -0.01050227 -0.00005016) // 188
    (-0.00998919 -0.01077480 -0.00175930) // 189
    (-0.00999135 -0.01111984 -0.00140244) // 190
    (-0.00999481 -0.01332809 -0.00083147) // 191
    (-0.00999280 -0.01250000 -0.00116298) // 192
    (-0.01000019 -0.01369985 0.00005604) // 193
    (-0.01000517 -0.01335523 0.00087875) // 194
    (-0.01000734 -0.01246193 0.00123637) // 195
    (-0.01000517 -0.01164477 0.00087875) // 196
    (-0.00999973 -0.01130136 -0.00002010) // 197
    (-0.00999481 -0.01167191 -0.00083147) // 198
    (-0.01000000 -0.01250000 0.00002500) // 199
    (-0.00830829 -0.01250000 -0.00244987) // 200
    (-0.00831528 -0.01422520 -0.00175924) // 201
    (-0.00831889 -0.01388016 -0.00140240) // 202
    (-0.00831330 -0.01250000 -0.00195490) // 203
    (-0.00833399 -0.01499969 0.00008966) // 204
    (-0.00833386 -0.01449975 0.00007673) // 205
    (-0.00835133 -0.01428174 0.00180360) // 206
    (-0.00834773 -0.01392539 0.00144788) // 207
    (-0.00835887 -0.01242068 0.00254861) // 208
    (-0.00835376 -0.01243654 0.00204389) // 209
    (-0.00835133 -0.01071826 0.00180360) // 210
    (-0.00834773 -0.01107461 0.00144788) // 211
    (-0.00833238 -0.01000283 -0.00006895) // 212
    (-0.00833257 -0.01050227 -0.00005016) // 213
    (-0.00831528 -0.01077480 -0.00175924) // 214
    (-0.00831889 -0.01111984 -0.00140240) // 215
    (-0.00832467 -0.01332809 -0.00083144) // 216
    (-0.00832131 -0.01250000 -0.00116294) // 217
    (-0.00833365 -0.01369985 0.00005604) // 218
    (-0.00834197 -0.01335523 0.00087873) // 219
    (-0.00834559 -0.01246193 0.00123633) // 220
    (-0.00834197 -0.01164477 0.00087873) // 221
    (-0.00833288 -0.01130136 -0.00002010) // 222
    (-0.00832467 -0.01167191 -0.00083144) // 223
    (-0.00833333 -0.01250000 0.00002500) // 224
    (-0.00662484 -0.01250000 -0.00244965) // 225
    (-0.00663651 -0.01422520 -0.00175908) // 226
    (-0.00664254 -0.01388016 -0.00140226) // 227
    (-0.00663321 -0.01250000 -0.00195472) // 228
    (-0.00666776 -0.01499969 0.00008966) // 229
    (-0.00666754 -0.01449975 0.00007672) // 230
    (-0.00669673 -0.01428174 0.00180343) // 231
    (-0.00669071 -0.01392539 0.00144775) // 232
    (-0.00670932 -0.01242068 0.00254838) // 233
    (-0.00670079 -0.01243654 0.00204370) // 234
    (-0.00669673 -0.01071826 0.00180343) // 235
    (-0.00669071 -0.01107461 0.00144775) // 236
    (-0.00666508 -0.01000283 -0.00006894) // 237
    (-0.00666540 -0.01050227 -0.00005015) // 238
    (-0.00663651 -0.01077480 -0.00175908) // 239
    (-0.00664254 -0.01111984 -0.00140226) // 240
    (-0.00665219 -0.01332809 -0.00083136) // 241
    (-0.00664659 -0.01250000 -0.00116283) // 242
    (-0.00666719 -0.01369985 0.00005603) // 243
    (-0.00668109 -0.01335523 0.00087865) // 244
    (-0.00668714 -0.01246193 0.00123622) // 245
    (-0.00668109 -0.01164477 0.00087865) // 246
    (-0.00666590 -0.01130136 -0.00002009) // 247
    (-0.00665219 -0.01167191 -0.00083136) // 248
    (-0.00666667 -0.01250000 0.00002500) // 249
    (-0.00493014 -0.01250000 -0.00244901) // 250
    (-0.00494964 -0.01422520 -0.00175862) // 251
    (-0.00495971 -0.01388016 -0.00140190) // 252
    (-0.00494412 -0.01250000 -0.00195421) // 253
    (-0.00500183 -0.01499969 0.00008964) // 254
    (-0.00500146 -0.01449975 0.00007671) // 255
    (-0.00505020 -0.01428174 0.00180298) // 256
    (-0.00504016 -0.01392539 0.00144738) // 257
    (-0.00507123 -0.01242068 0.00254774) // 258
    (-0.00505699 -0.01243654 0.00204319) // 259
    (-0.00505020 -0.01071826 0.00180298) // 260
    (-0.00504016 -0.01107461 0.00144738) // 261
    (-0.00499735 -0.01000283 -0.00006892) // 262
    (-0.00499788 -0.01050227 -0.00005013) // 263
    (-0.00494964 -0.01077480 -0.00175862) // 264
    (-0.00495971 -0.01111984 -0.00140190) // 265
    (-0.00497583 -0.01332809 -0.00083114) // 266
    (-0.00496647 -0.01250000 -0.00116253) // 267
    (-0.00500088 -0.01369985 0.00005603) // 268
    (-0.00502410 -0.01335523 0.00087843) // 269
    (-0.00503419 -0.01246193 0.00123591) // 270
    (-0.00502410 -0.01164477 0.00087843) // 271
    (-0.00499873 -0.01130136 -0.00002008) // 272
    (-0.00497583 -0.01167191 -0.00083114) // 273
    (-0.00500000 -0.01250000 0.00002500) // 274
    (-0.00321668 -0.01250000 -0.00243215) // 275
    (-0.00324923 -0.01422520 -0.00174225) // 276
    (-0.00326605 -0.01388016 -0.00138578) // 277
    (-0.00324001 -0.01250000 -0.00193770) // 278
    (-0.00333638 -0.01499969 0.00010469) // 279
    (-0.00333577 -0.01449975 0.00009178) // 280
    (-0.00341717 -0.01428174 0.00181681) // 281
    (-0.00340040 -0.01392539 0.00146147) // 282
    (-0.00345228 -0.01242068 0.00256104) // 283
    (-0.00342849 -0.01243654 0.00205685) // 284
    (-0.00341717 -0.01071826 0.00181681) // 285
    (-0.00340040 -0.01107461 0.00146147) // 286
    (-0.00332891 -0.01000283 -0.00005375) // 287
    (-0.00332979 -0.01050227 -0.00003498) // 288
    (-0.00324923 -0.01077480 -0.00174225) // 289
    (-0.00326605 -0.01111984 -0.00138578) // 290
    (-0.00329297 -0.01332809 -0.00081543) // 291
    (-0.00327734 -0.01250000 -0.00114658) // 292
    (-0.00333480 -0.01369985 0.00007111) // 293
    (-0.00337357 -0.01335523 0.00089292) // 294
    (-0.00339043 -0.01246193 0.00125015) // 295
    (-0.00337357 -0.01164477 0.00089292) // 296
    (-0.00333121 -0.01130136 -0.00000495) // 297
    (-0.00329297 -0.01167191 -0.00081543) // 298
    (-0.00333333 -0.01250000 0.00004010) // 299
    (-0.00147196 -0.01250000 -0.00238192) // 300
    (-0.00152629 -0.01422520 -0.00169340) // 301
    (-0.00155437 -0.01388016 -0.00133764) // 302
    (-0.00151090 -0.01250000 -0.00188846) // 303
    (-0.00167175 -0.01499969 0.00014987) // 304
    (-0.00167074 -0.01449975 0.00013698) // 305
    (-0.00180660 -0.01428174 0.00185858) // 306
    (-0.00177861 -0.01392539 0.00150394) // 307
    (-0.00186521 -0.01242068 0.00260132) // 308
    (-0.00182550 -0.01243654 0.00209814) // 309
    (-0.00180660 -0.01071826 0.00185858) // 310
    (-0.00177861 -0.01107461 0.00150394) // 311
    (-0.00165928 -0.01000283 -0.00000826) // 312
    (-0.00166075 -0.01050227 0.00001047) // 313
    (-0.00152629 -0.01077480 -0.00169340) // 314
    (-0.00155437 -0.01111984 -0.00133764) // 315
    (-0.00159929 -0.01332809 -0.00076842) // 316
    (-0.00157321 -0.01250000 -0.00109891) // 317
    (-0.00166911 -0.01369985 0.00011635) // 318
    (-0.00173383 -0.01335523 0.00093653) // 319
    (-0.00176197 -0.01246193 0.00129305) // 320
    (-0.00173383 -0.01164477 0.00093653) // 321
    (-0.00166312 -0.01130136 0.00004045) // 322
    (-0.00159929 -0.01167191 -0.00076842) // 323
    (-0.00166667 -0.01250000 0.00008540) // 324
    (0.00032462 -0.01250000 -0.00229271) // 325
    (0.00023403 -0.01422520 -0.00160801) // 326
    (0.00018723 -0.01388016 -0.00125423) // 327
    (0.00025970 -0.01250000 -0.00180199) // 328
    (-0.00000848 -0.01499969 0.00022502) // 329
    (-0.00000679 -0.01449975 0.00021219) // 330
    (-0.00023329 -0.01428174 0.00192423) // 331
    (-0.00018663 -0.01392539 0.00157157) // 332
    (-0.00033101 -0.01242068 0.00266285) // 333
    (-0.00026481 -0.01243654 0.00216246) // 334
    (-0.00023329 -0.01071826 0.00192423) // 335
    (-0.00018663 -0.01107461 0.00157157) // 336
    (0.00001232 -0.01000283 0.00006777) // 337
    (0.00000986 -0.01050227 0.00008640) // 338
    (0.00023403 -0.01077480 -0.00160801) // 339
    (0.00018723 -0.01111984 -0.00125423) // 340
    (0.00011234 -0.01332809 -0.00068817) // 341
    (0.00015582 -0.01250000 -0.00101683) // 342
    (-0.00000407 -0.01369985 0.00019168) // 343
    (-0.00011198 -0.01335523 0.00100730) // 344
    (-0.00015889 -0.01246193 0.00136184) // 345
    (-0.00011198 -0.01164477 0.00100730) // 346
    (0.00000592 -0.01130136 0.00011620) // 347
    (0.00011234 -0.01167191 -0.00068817) // 348
    (-0.00000000 -0.01250000 0.00016091) // 349
    (0.00168962 -0.01238953 -0.00218700) // 350
    (0.00178824 -0.01411429 -0.00150230) // 351
    (0.00170398 -0.01377644 -0.00114852) // 352
    (0.00162509 -0.01239663 -0.00169628) // 353
    (0.00163188 -0.01491065 0.00033072) // 354
    (0.00157889 -0.01441353 0.00031790) // 355
    (0.00132990 -0.01422159 0.00202994) // 356
    (0.00133731 -0.01386228 0.00167727) // 357
    (0.00102925 -0.01238239 0.00276856) // 358
    (0.00109679 -0.01239092 0.00226817) // 359
    (0.00094022 -0.01067950 0.00202994) // 360
    (0.00102556 -0.01102860 0.00167727) // 361
    (0.00110612 -0.00994149 0.00017347) // 362
    (0.00115829 -0.01043820 0.00019210) // 363
    (0.00141092 -0.01068459 -0.00150230) // 364
    (0.00140213 -0.01103268 -0.00114852) // 365
    (0.00156917 -0.01323588 -0.00058246) // 366
    (0.00152183 -0.01240799 -0.00091112) // 367
    (0.00149412 -0.01361813 0.00029739) // 368
    (0.00134917 -0.01328738 0.00111301) // 369
    (0.00120485 -0.01240456 0.00146755) // 370
    (0.00116212 -0.01158717 0.00111301) // 371
    (0.00124175 -0.01123293 0.00022191) // 372
    (0.00138806 -0.01158962 -0.00058246) // 373
    (0.00136695 -0.01242503 0.00026662) // 374
    (0.00303436 -0.01213046 -0.00205109) // 375
    (0.00332100 -0.01383409 -0.00136639) // 376
    (0.00320030 -0.01350748 -0.00101261) // 377
    (0.00297099 -0.01214457 -0.00156037) // 378
    (0.00325266 -0.01464277 0.00046663) // 379
    (0.00314563 -0.01415443 0.00045381) // 380
    (0.00287714 -0.01399087 0.00216585) // 381
    (0.00284522 -0.01363290 0.00181318) // 382
    (0.00237717 -0.01219557 0.00290447) // 383
    (0.00244523 -0.01219666 0.00240408) // 384
    (0.00210244 -0.01051263 0.00216585) // 385
    (0.00222546 -0.01085031 0.00181318) // 386
    (0.00218665 -0.00976091 0.00030938) // 387
    (0.00229282 -0.01024893 0.00032801) // 388
    (0.00257088 -0.01046622 -0.00136639) // 389
    (0.00260021 -0.01081318 -0.00101261) // 390
    (0.00300718 -0.01298490 -0.00044655) // 391
    (0.00286960 -0.01216716 -0.00077521) // 392
    (0.00297438 -0.01337307 0.00043330) // 393
    (0.00279413 -0.01306015 0.00124892) // 394
    (0.00255414 -0.01219841 0.00160346) // 395
    (0.00242228 -0.01139060 0.00124892) // 396
    (0.00246269 -0.01102977 0.00035782) // 397
    (0.00264713 -0.01136832 -0.00044655) // 398
    (0.00271751 -0.01220103 0.00040253) // 399
    (0.00434270 -0.01172588 -0.00188498) // 400
    (0.00481392 -0.01338795 -0.00120028) // 401
    (0.00465823 -0.01307649 -0.00084650) // 402
    (0.00428126 -0.01174684 -0.00139426) // 403
    (0.00483443 -0.01419926 0.00063275) // 404
    (0.00467464 -0.01372554 0.00061992) // 405
    (0.00438988 -0.01359233 0.00233196) // 406
    (0.00431899 -0.01324000 0.00197930) // 407
    (0.00369657 -0.01186247 0.00307058) // 408
    (0.00376435 -0.01185611 0.00257019) // 409
    (0.00323946 -0.01021966 0.00233196) // 410
    (0.00339866 -0.01054187 0.00197930) // 411
    (0.00324095 -0.00946325 0.00047550) // 412
    (0.00339985 -0.00993673 0.00049413) // 413
    (0.00370001 -0.01012231 -0.00120028) // 414
    (0.00376710 -0.01046398 -0.00084650) // 415
    (0.00440913 -0.01257817 -0.00028044) // 416
    (0.00418294 -0.01178038 -0.00060910) // 417
    (0.00441897 -0.01296760 0.00059941) // 418
    (0.00420558 -0.01267627 0.00141503) // 419
    (0.00387280 -0.01184594 0.00176957) // 420
    (0.00365338 -0.01105739 0.00141503) // 421
    (0.00365410 -0.01069431 0.00052393) // 422
    (0.00387445 -0.01101066 -0.00028044) // 423
    (0.00403547 -0.01183068 0.00056864) // 424
    (0.00559895 -0.01118066 -0.00170377) // 425
    (0.00624911 -0.01278122 -0.00101907) // 426
    (0.00606029 -0.01248866 -0.00066528) // 427
    (0.00554017 -0.01120821 -0.00121304) // 428
    (0.00635821 -0.01358543 0.00081396) // 429
    (0.00614757 -0.01313203 0.00080114) // 430
    (0.00584995 -0.01303075 0.00251317) // 431
    (0.00574097 -0.01268829 0.00216051) // 432
    (0.00497163 -0.01138709 0.00325179) // 433
    (0.00503831 -0.01137335 0.00275140) // 434
    (0.00433761 -0.00980412 0.00251317) // 435
    (0.00453109 -0.01010698 0.00216051) // 436
    (0.00425638 -0.00905207 0.00065671) // 437
    (0.00446611 -0.00950534 0.00067534) // 438
    (0.00478475 -0.00965698 -0.00101907) // 439
    (0.00488881 -0.00998927 -0.00066528) // 440
    (0.00575818 -0.01202057 -0.00009923) // 441
    (0.00544611 -0.01125230 -0.00042788) // 442
    (0.00581055 -0.01240659 0.00078062) // 443
    (0.00556659 -0.01214034 0.00159625) // 444
    (0.00514499 -0.01135138 0.00195078) // 445
    (0.00484066 -0.01059156 0.00159625) // 446
    (0.00480167 -0.01023058 0.00070514) // 447
    (0.00505529 -0.01052093 -0.00009923) // 448
    (0.00530502 -0.01131843 0.00074985) // 449
    (0.00678805 -0.01050132 -0.00152255) // 450
    (0.00760933 -0.01202119 -0.00083785) // 451
    (0.00738966 -0.01175104 -0.00048407) // 452
    (0.00673263 -0.01053514 -0.00103183) // 453
    (0.00780573 -0.01280864 0.00099517) // 454
    (0.00754677 -0.01238099 0.00098235) // 455
    (0.00723986 -0.01231287 0.00269439) // 456
    (0.00709408 -0.01198438 0.00234172) // 457
    (0.00618706 -0.01077511 0.00343301) // 458
    (0.00625184 -0.01075417 0.00293262) // 459
    (0.00538374 -0.00927098 0.00269439) // 460
    (0.00560918 -0.00955086 0.00234172) // 461
    (0.00522075 -0.00853233 0.00083792) // 462
    (0.00547879 -0.00895994 0.00085655) // 463
    (0.00581211 -0.00907582 -0.00083785) // 464
    (0.00595187 -0.00939474 -0.00048407) // 465
    (0.00703817 -0.01131878 0.00008198) // 466
    (0.00664395 -0.01058925 -0.00024667) // 467
    (0.00713244 -0.01169676 0.00096184) // 468
    (0.00686082 -0.01145879 0.00177746) // 469
    (0.00635548 -0.01072067 0.00213200) // 470
    (0.00596988 -0.00999868 0.00177746) // 471
    (0.00589165 -0.00964413 0.00088636) // 472
    (0.00617550 -0.00990501 0.00008198) // 473
    (0.00651094 -0.01067041 0.00093107) // 474
    (0.00789572 -0.00969603 -0.00134134) // 475
    (0.00887829 -0.01111697 -0.00065664) // 476
    (0.00863038 -0.01087246 -0.00030286) // 477
    (0.00784433 -0.00973570 -0.00085062) // 478
    (0.00915962 -0.01187822 0.00117639) // 479
    (0.00885545 -0.01148145 0.00116356) // 480
    (0.00854293 -0.01144730 0.00287560) // 481
    (0.00836210 -0.01113672 0.00252294) // 482
    (0.00732828 -0.01003390 0.00361422) // 483
    (0.00739038 -0.01000600 0.00311383) // 484
    (0.00636529 -0.00862663 0.00287560) // 485
    (0.00661998 -0.00888019 0.00252294) // 486
    (0.00612250 -0.00791023 0.00101914) // 487
    (0.00642575 -0.00830707 0.00103776) // 488
    (0.00676975 -0.00838580 -0.00065664) // 489
    (0.00694355 -0.00868752 -0.00030286) // 490
    (0.00823374 -0.01048123 0.00026320) // 491
    (0.00776211 -0.00979918 -0.00006546) // 492
    (0.00836878 -0.01084663 0.00114305) // 493
    (0.00807277 -0.01063980 0.00195867) // 494
    (0.00748974 -0.00996136 0.00231321) // 495
    (0.00702750 -0.00928587 0.00195867) // 496
    (0.00691096 -0.00894200 0.00106757) // 497
    (0.00722164 -0.00917027 0.00026320) // 498
    (0.00763877 -0.00989440 0.00111228) // 499
    (0.00890869 -0.00877443 -0.00116013) // 500
    (0.01004075 -0.01007940 -0.00047543) // 501
    (0.00976759 -0.00986346 -0.00012164) // 502
    (0.00886194 -0.00881949 -0.00066940) // 503
    (0.01040364 -0.01080532 0.00135760) // 504
    (0.01005790 -0.01044420 0.00134478) // 505
    (0.00974353 -0.01044443 0.00305681) // 506
    (0.00952981 -0.01015549 0.00270415) // 507
    (0.00838160 -0.00917233 0.00379543) // 508
    (0.00844027 -0.00913781 0.00329504) // 509
    (0.00727048 -0.00787881 0.00305681) // 510
    (0.00755138 -0.00810299 0.00270415) // 511
    (0.00695081 -0.00719326 0.00120035) // 512
    (0.00729564 -0.00755455 0.00121898) // 513
    (0.00764618 -0.00759520 -0.00047543) // 514
    (0.00785194 -0.00787610 -0.00012164) // 515
    (0.00933054 -0.00951797 0.00044441) // 516
    (0.00878715 -0.00889158 0.00011576) // 517
    (0.00950473 -0.00986641 0.00132426) // 518
    (0.00918788 -0.00969318 0.00213989) // 519
    (0.00853415 -0.00908257 0.00249442) // 520
    (0.00800082 -0.00846168 0.00213989) // 521
    (0.00784737 -0.00813262 0.00124878) // 522
    (0.00818115 -0.00832555 0.00044441) // 523
    (0.00867497 -0.00899972 0.00129349) // 524
    (0.00981480 -0.00774759 -0.00097891) // 525
    (0.01108278 -0.00892093 -0.00029421) // 526
    (0.01078764 -0.00873616 0.00005957) // 527
    (0.00977326 -0.00779749 -0.00048819) // 528
    (0.01152287 -0.00960281 0.00153881) // 529
    (0.01113972 -0.00928167 0.00152599) // 530
    (0.01082725 -0.00931628 0.00323803) // 531
    (0.01058322 -0.00905244 0.00288536) // 532
    (0.00933438 -0.00820074 0.00397665) // 533
    (0.00938893 -0.00816001 0.00347626) // 534
    (0.00808848 -0.00703649 0.00323803) // 535
    (0.00839221 -0.00722861 0.00288536) // 536
    (0.00769575 -0.00639001 0.00138156) // 537
    (0.00807803 -0.00671142 0.00140019) // 538
    (0.00843091 -0.00671349 -0.00029421) // 539
    (0.00866615 -0.00697021 0.00005957) // 540
    (0.01031543 -0.00844053 0.00062562) // 541
    (0.00970680 -0.00787732 0.00029697) // 542
    (0.01052668 -0.00876783 0.00150548) // 543
    (0.01019278 -0.00863030 0.00232110) // 544
    (0.00947620 -0.00809484 0.00267564) // 545
    (0.00887817 -0.00753600 0.00232110) // 546
    (0.00868966 -0.00722569 0.00143000) // 547
    (0.00904254 -0.00738096 0.00062562) // 548
    (0.00960712 -0.00799708 0.00147471) // 549
    (0.01060318 -0.00662782 -0.00079770) // 550
    (0.01199187 -0.00765546 -0.00011300) // 551
    (0.01167830 -0.00750408 0.00024078) // 552
    (0.01056735 -0.00668196 -0.00030698) // 553
    (0.01250389 -0.00828513 0.00172003) // 554
    (0.01208792 -0.00800781 0.00170720) // 555
    (0.01178111 -0.00807638 0.00341924) // 556
    (0.01150969 -0.00784081 0.00306658) // 557
    (0.01017520 -0.00713079 0.00415786) // 558
    (0.01022497 -0.00708433 0.00365747) // 559
    (0.00880945 -0.00610976 0.00341924) // 560
    (0.00913237 -0.00626751 0.00306658) // 561
    (0.00834839 -0.00551010 0.00156278) // 562
    (0.00876351 -0.00578779 0.00158140) // 563
    (0.00911451 -0.00575125 -0.00011300) // 564
    (0.00937641 -0.00598071 0.00024078) // 565
    (0.01117659 -0.00726185 0.00080684) // 566
    (0.01051002 -0.00676858 0.00047818) // 567
    (0.01142236 -0.00756409 0.00168669) // 568
    (0.01107543 -0.00746389 0.00250231) // 569
    (0.01030459 -0.00701001 0.00285685) // 570
    (0.00964903 -0.00651992 0.00250231) // 571
    (0.00942772 -0.00623208 0.00161121) // 572
    (0.00979546 -0.00634783 0.00080684) // 573
    (0.01042403 -0.00689852 0.00165592) // 574
    (0.01126438 -0.00542854 -0.00061649) // 575
    (0.01275712 -0.00629817 0.00006821) // 576
    (0.01242888 -0.00618198 0.00042200) // 577
    (0.01123469 -0.00548628 -0.00012576) // 578
    (0.01333493 -0.00686806 0.00190124) // 579
    (0.01289113 -0.00663789 0.00188842) // 580
    (0.01259365 -0.00673960 0.00360045) // 581
    (0.01229810 -0.00653513 0.00324779) // 582
    (0.01089397 -0.00597530 0.00433907) // 583
    (0.01093836 -0.00592368 0.00383868) // 584
    (0.00942476 -0.00510975 0.00360045) // 585
    (0.00976299 -0.00523125 0.00324779) // 586
    (0.00890088 -0.00456411 0.00174399) // 587
    (0.00934389 -0.00479473 0.00176262) // 588
    (0.00968878 -0.00472003 0.00006821) // 589
    (0.00997420 -0.00491947 0.00042200) // 590
    (0.01190369 -0.00599607 0.00098805) // 591
    (0.01118718 -0.00557866 0.00065940) // 592
    (0.01218104 -0.00626962 0.00186790) // 593
    (0.01182523 -0.00620796 0.00268353) // 594
    (0.01100938 -0.00584110 0.00303806) // 595
    (0.01030416 -0.00542564 0.00268353) // 596
    (0.01005269 -0.00516373 0.00179242) // 597
    (0.01043089 -0.00523857 0.00098805) // 598
    (0.01111591 -0.00571722 0.00183713) // 599
    (0.01179047 -0.00416416 -0.00043527) // 600
    (0.01336935 -0.00486533 0.00024942) // 601
    (0.01303037 -0.00478573 0.00060321) // 602
    (0.01176727 -0.00422479 0.00005545) // 603
    (0.01400602 -0.00536862 0.00208245) // 604