/*--------------------------------*- C++ -*----------------------------------*\
| =========                 |                                                 |
| \\      /  F ield         | OpenFOAM: The Open Source CFD Toolbox           |
|  \\    /   O peration     | Version:  v1906                                 |
|   \\  /    A nd           | Web:      www.OpenFOAM.com                      |
|    \\/     M anipulation  |                                                 |
\*---------------------------------------------------------------------------*/
FoamFile
{
    version     2.0;
    format      ascii;
    class       polyBoundaryMesh;
    location    "constant/polyMesh";
    object      boundary;
}
// * * * * * * * * * * * * * * * * * * * * * * * * * * * * * * * * * * * * * //

3
(
    outlet
    {
        type            patch;
        nFaces          320;
        startFace       258336;
    }
    inlet
    {
        type            patch;
        nFaces          320;
        startFace       258656;
    }
    wall
    {
        type            patch;
        nFaces          8768;
        startFace       258976;
    }
)

// ************************************************************************* //
